                                   MODFLOW 6
                U.S. GEOLOGICAL SURVEY MODULAR HYDROLOGIC MODEL
                            VERSION 6.2.1 02/18/2021

   MODFLOW 6 compiled Feb 18 2021 21:14:51 with IFORT compiler (ver. 19.10.3)

This software has been approved for release by the U.S. Geological 
Survey (USGS). Although the software has been subjected to rigorous 
review, the USGS reserves the right to update the software as needed 
pursuant to further analysis and review. No warranty, expressed or 
implied, is made by the USGS or the U.S. Government as to the 
functionality of the software and related material nor shall the 
fact of release constitute any such warranty. Furthermore, the 
software is released on condition that neither the USGS nor the U.S. 
Government shall be held liable for any damages resulting from its 
authorized or unauthorized use. Also refer to the USGS Water 
Resources Software User Rights Notice for complete use, copyright, 
and distribution information.


System command used to initiate simulation:
C:\Users\nat12nho\Documents\Development\repos\hagfors_model\bins\mf6.exe

MODFLOW was compiled using uniform precision.

Real Variables
  KIND: 8
  TINY (smallest non-zero value):    2.225074-308
  HUGE (largest value):    1.797693+308
  PRECISION: 15
  BIT SIZE: 64

Integer Variables
  KIND: 4
  HUGE (largest value): 2147483647
  BIT SIZE: 32

Long Integer Variables
  KIND: 8
  HUGE (largest value): 9223372036854775807
  BIT SIZE: 64

Logical Variables
  KIND: 4
  BIT SIZE: 32
 

 OPENED mfsim.nam
 FILE TYPE:NAM   UNIT 1001   STATUS:OLD                 
 FORMAT:FORMATTED              ACCESS:SEQUENTIAL          
 ACTION:READ                


 READING SIMULATION TIMING

 OPENED C:\Users\nat12nho\Documents\Development\repos\hagfors_model\hagfors\hagfors.tdis
 FILE TYPE:TDIS   UNIT 1002   STATUS:OLD                 
 FORMAT:FORMATTED              ACCESS:SEQUENTIAL          
 ACTION:READ                


 TDIS -- TEMPORAL DISCRETIZATION PACKAGE,
 VERSION 1 : 11/13/2014 - INPUT READ FROM UNIT 1002
 # TDIS file created on 2021-05-25 by ModelMuse version 4.3.0.0.
 PROCESSING TDIS OPTIONS
    SIMULATION TIME UNIT IS DAYS
 END OF TDIS OPTIONS
 PROCESSING TDIS DIMENSIONS
    1 STRESS PERIOD(S) IN SIMULATION
 END OF TDIS DIMENSIONS
 PROCESSING TDIS PERIODDATA


 STRESS PERIOD     LENGTH       TIME STEPS     MULTIPLIER FOR DELT
 ----------------------------------------------------------------------------
        1         1.000000          1                    1.000
 END OF TDIS PERIODDATA
 END OF SIMULATION TIMING

 READING SIMULATION MODELS
    GWF6 model MODFLOW will be created as model 1
 END OF SIMULATION MODELS

 READING SIMULATION EXCHANGES
 END OF SIMULATION EXCHANGES

 READING SOLUTIONGROUP

 Creating solution: SLN_1           

 OPENED C:\Users\nat12nho\Documents\Development\repos\hagfors_model\hagfors\hagfors.ims
 FILE TYPE:IMS   UNIT 1012   STATUS:OLD                 
 FORMAT:FORMATTED              ACCESS:SEQUENTIAL          
 ACTION:READ                

 END OF SIMULATION SOLUTIONGROUP

 IMS -- ITERATIVE MODEL SOLUTION PACKAGE, VERSION 6, 4/28/2017
         INPUT READ FROM UNIT 1012
 # IMS: Iterative Model Solution file created on 2021-05-25 by ModelMuse version 4.3.0.0.

 PROCESSING IMS OPTIONS
 SIMPLE OPTION:
 DEFAULT SOLVER INPUT VALUES FOR FAST SOLUTIONS
 END OF IMS OPTIONS

 PROCESSING IMS NONLINEAR
 END OF IMS NONLINEAR DATA
 ***UNDER-RELAXATION WILL NOT BE USED***
 
 ***IMS LINEAR SOLVER WILL BE USED***

 IMSLINEAR -- UNSTRUCTURED LINEAR SOLUTION PACKAGE, VERSION 8, 04/28/2017

 PROCESSING LINEAR DATA
 END OF LINEAR DATA
 
 OUTER ITERATION CONVERGENCE CRITERION    (DVCLOSE) =    0.100000E-02
 MAXIMUM NUMBER OF OUTER ITERATIONS        (MXITER) = 25
 SOLVER PRINTOUT INDEX                     (IPRIMS) = 2
 NONLINEAR ITERATION METHOD            (NONLINMETH) = 0
 LINEAR SOLUTION METHOD                   (LINMETH) = 1

       SOLUTION BY THE BICONJUGATE-GRADIENT STABILIZED METHOD
 ------------------------------------------------------------------
 MAXIMUM OF 25 CALLS OF SOLUTION ROUTINE
 MAXIMUM OF 50 INTERNAL ITERATIONS PER CALL TO SOLUTION ROUTINE
 LINEAR ACCELERATION METHOD            = BCGS      
 MATRIX PRECONDITIONING TYPE           = INCOMPLETE LU       
 MATRIX SCALING APPROACH               = NO SCALING          
 MATRIX REORDERING APPROACH            = ORIGINAL ORDERING        
 NUMBER OF ORTHOGONALIZATIONS          = 0
 HEAD CHANGE CRITERION FOR CLOSURE     =    0.10000E-02
 RESIDUAL CHANGE CRITERION FOR CLOSURE =    0.10000E+00
 RESIDUAL CONVERGENCE OPTION           = 0
 RESIDUAL CONVERGENCE NORM             = INFINITY NORM   
 RELAXATION FACTOR                     =    0.00000E+00



1
                            STRESS PERIOD NO.    1, LENGTH =   1.000000    
                            -----------------------------------------------

                              NUMBER OF TIME STEPS =     1

                               MULTIPLIER FOR DELT =     1.000

                            INITIAL TIME STEP SIZE =   1.000000    

 OUTER ITERATION SUMMARY
 ----------------------------------------------------------------------------------------------------------
                                OUTER      INNER                    STEP   MAXIMUM CHANGE MODEL-(CELLID) OR
 OUTER ITERATION STEP       ITERATION  ITERATION  MAXIMUM CHANGE SUCCESS             MODEL-PACKAGE-(NUMBER)
 ----------------------------------------------------------------------------------------------------------
 Model                              1         50       112.57449                          1_GWF-(1,115,380)
 Model                              2         50       131.50046                           1_GWF-(3,42,235)
 Model                              3         50       22.881617                           1_GWF-(1,190,91)
 Model                              4         50      -8.7184952                          1_GWF-(1,177,380)
 Model                              5         50       10.123452                           1_GWF-(1,184,85)
 Model                              6         50       2.1869707                           1_GWF-(3,42,215)
 Model                              7         50      0.63244382                          1_GWF-(1,219,278)
 Model                              8         48      0.20693673                           1_GWF-(1,41,230)
 Model                              9         43      0.11771442                           1_GWF-(3,41,345)
 Model                             10         26  3.53431874E-02                           1_GWF-(3,41,223)
 Model                             11          2 -1.99776099E-03                             1_GWF-(1,2,61)
 Model                             12          1 -3.50675947E-04       *                     1_GWF-(1,2,67)
 Package                           12                 -618.42643                   1_GWF-SFR-1-(563)-inflow
 Model                             13          1 -9.52987226E-04       *                     1_GWF-(1,1,68)
 Package                           13                 -263.58589                   1_GWF-SFR-1-(563)-inflow
 Model                             14          1  2.34026895E-04       *                     1_GWF-(1,1,66)
 Package                           14                 -379.45241                   1_GWF-SFR-1-(563)-inflow
 Model                             15          6  1.15905727E-02                            1_GWF-(3,1,109)
 Model                             16          6 -6.36965387E-03                            1_GWF-(3,1,104)
 Model                             17          4  3.17305405E-03                             1_GWF-(3,2,99)
 Model                             18          1  5.44226718E-04       *                  1_GWF-(1,152,226)
 Package                           18                  161.24028                   1_GWF-SFR-1-(563)-inflow
 Model                             19          4 -3.39909499E-03                             1_GWF-(3,2,96)
 Model                             20          3  2.68043710E-03                             1_GWF-(3,2,95)
 Model                             21          4 -1.96451837E-03                             1_GWF-(3,2,93)
 Model                             22          1  4.63906928E-04       *                  1_GWF-(1,152,226)
 Package                           22                 -290.84585                   1_GWF-SFR-1-(563)-inflow
 Model                             23          4  2.22585544E-03                             1_GWF-(3,2,93)
 Model                             24          3 -2.02285999E-03                             1_GWF-(3,2,94)
 Model                             25          1  3.88602733E-04       *                  1_GWF-(1,152,226)
 Package                           25                 -236.45685                   1_GWF-SFR-1-(563)-inflow
 ----------------------------------------------------------------------------------------------------------


 Solution 1 did not converge for stress period 1 and time step 1

 INNER ITERATION SUMMARY
 --------------------------------------------------------------------------------------------------------------------------------------
      TOTAL      OUTER      INNER                                                            MAXIMUM                                   
  ITERATION  ITERATION  ITERATION  MAXIMUM CHANGE      MAXIMUM CHANGE MODEL-(CELLID)        RESIDUAL    MAXIMUM RESIDUAL MODEL-(CELLID)
 --------------------------------------------------------------------------------------------------------------------------------------
          1          1          1       20.239186                  1_GWF-(1,154,380)      -3956.7644                     1_GWF-(1,64,2)
          2          1          2       16.796245                     1_GWF-(1,64,1)      -2474.2118                     1_GWF-(1,42,3)
          3          1          3       12.074332                     1_GWF-(1,67,1)      -2010.5253                     1_GWF-(1,42,3)
          4          1          4       9.7641798                     1_GWF-(1,69,4)      -1883.0562                     1_GWF-(1,42,3)
          5          1          5       8.0689105                     1_GWF-(1,72,6)      -1172.0886                     1_GWF-(1,42,3)
          6          1          6       6.9170659                     1_GWF-(1,74,8)      -1146.8489                     1_GWF-(1,42,3)
          7          1          7       5.8910989                    1_GWF-(1,73,10)      -802.48469                     1_GWF-(1,42,3)
          8          1          8       5.4110347                  1_GWF-(1,122,370)      -819.55412                     1_GWF-(1,42,3)
          9          1          9       5.1193630                  1_GWF-(1,122,369)      -526.59456                     1_GWF-(1,40,5)
         10          1         10       5.0322249                  1_GWF-(1,123,367)      -504.74817                     1_GWF-(1,40,5)
         11          1         11       4.8394957                   1_GWF-(3,96,379)      -311.88528                     1_GWF-(1,38,7)
         12          1         12       4.9204274                  1_GWF-(3,129,379)      -361.59929                     1_GWF-(1,38,7)
         13          1         13       4.9126080                  1_GWF-(3,127,378)      -285.62602                     1_GWF-(1,38,7)
         14          1         14       4.9976801                  1_GWF-(3,124,376)      -334.32364                     1_GWF-(1,38,7)
         15          1         15       4.9525141                  1_GWF-(3,122,375)       229.15502                     1_GWF-(1,37,8)
         16          1         16       4.8694974                  1_GWF-(3,121,372)      -239.20392                     1_GWF-(1,36,9)
         17          1         17       4.5838903                  1_GWF-(3,121,369)      -174.87244                     1_GWF-(1,36,9)
         18          1         18       4.2936898                  1_GWF-(3,120,365)      -200.16738                     1_GWF-(1,36,9)
         19          1         19       4.0161825                  1_GWF-(3,120,362)      -150.62683                    1_GWF-(1,34,11)
         20          1         20       3.8527144                  1_GWF-(3,120,358)      -171.14658                    1_GWF-(1,34,11)
         21          1         21       3.6514543                  1_GWF-(3,119,355)      -131.22616                    1_GWF-(1,34,11)
         22          1         22       3.5195974                  1_GWF-(3,118,352)      -145.81993                    1_GWF-(1,34,11)
         23          1         23       3.3991636                  1_GWF-(3,118,349)      -123.04553                    1_GWF-(1,32,13)
         24          1         24       3.3634229                  1_GWF-(3,118,346)      -141.71090                    1_GWF-(1,32,13)
         25          1         25       3.2824302                  1_GWF-(3,117,344)      -110.24183                    1_GWF-(1,32,13)
         26          1         26       3.1777541                  1_GWF-(3,116,342)      -119.77673                    1_GWF-(1,32,13)
         27          1         27       3.0060594                  1_GWF-(3,116,340)      -103.01096                    1_GWF-(1,30,15)
         28          1         28       2.8956857                  1_GWF-(3,115,338)      -121.39617                    1_GWF-(1,30,15)
         29          1         29       2.7953744                  1_GWF-(3,114,336)      -92.161974                    1_GWF-(1,30,15)
         30          1         30       2.6691200                  1_GWF-(3,114,334)      -93.117599                    1_GWF-(1,28,17)
         31          1         31       2.4732208                  1_GWF-(3,114,331)      -74.038466                    1_GWF-(1,28,17)
         32          1         32       2.3158713                  1_GWF-(3,114,328)      -88.523891                    1_GWF-(1,28,17)
         33          1         33       2.1481709                  1_GWF-(3,114,326)      -65.784520                    1_GWF-(1,28,17)
         34          1         34       2.2004368                  1_GWF-(1,114,328)      -99.001304                    1_GWF-(1,26,19)
         35          1         35       2.3658545                  1_GWF-(1,114,327)      -35.223272                   1_GWF-(1,95,304)
         36          1         36       5.1931969                  1_GWF-(3,120,302)      -203.21678                    1_GWF-(1,27,18)
         37          1         37 -6.81465827E-02                    1_GWF-(1,28,17)      -26.768823                   1_GWF-(1,42,329)
         38          1         38       1.8654950                  1_GWF-(3,113,334)      -26.204614                   1_GWF-(1,42,329)
         39          1         39       2.3335069                  1_GWF-(3,112,325)      -118.82507                    1_GWF-(1,24,21)
         40          1         40      0.97980289                   1_GWF-(1,41,345)      -22.946481                   1_GWF-(1,42,329)
         41          1         41      -1.7430813                   1_GWF-(1,41,344)      -37.651998                    1_GWF-(1,23,22)
         42          1         42       2.2039952                   1_GWF-(1,41,344)      -22.492985                   1_GWF-(1,42,329)
         43          1         43       4.3282400                   1_GWF-(1,41,331)      -117.28782                    1_GWF-(1,24,21)
         44          1         44       1.2057781                   1_GWF-(3,41,344)      -18.276479                   1_GWF-(1,42,295)
         45          1         45       4.1656860                   1_GWF-(3,41,339)      -49.316241                    1_GWF-(1,22,23)
         46          1         46      0.83779012                   1_GWF-(3,41,344)      -17.393722                   1_GWF-(1,42,293)
         47          1         47       4.7494066                   1_GWF-(1,42,290)       82.292144                  1_GWF-(1,190,375)
         48          1         48       2.3661691                   1_GWF-(1,41,333)      -11.878069                  1_GWF-(1,185,327)
         49          1         49      0.90464021                   1_GWF-(3,72,336)      -15.535363                  1_GWF-(1,191,373)
         50          1         50     -0.40300978                   1_GWF-(1,41,339)      -20.820007                  1_GWF-(1,192,372)
         51          2          1       5.5086864                   1_GWF-(3,99,302)      -119.73101                    1_GWF-(1,70,72)
         52          2          2       4.8838394                  1_GWF-(3,217,289)      -103.47889                  1_GWF-(1,190,375)
         53          2          3       14.710524                  1_GWF-(3,217,288)      -367.29435                    1_GWF-(1,23,22)
         54          2          4       2.8346152                   1_GWF-(1,42,285)      -68.250486                    1_GWF-(1,30,15)
         55          2          5       6.0530730                  1_GWF-(3,111,276)      -48.527165                    1_GWF-(1,30,15)
         56          2          6       4.2289878                  1_GWF-(1,216,302)      -43.801966                  1_GWF-(1,123,375)
         57          2          7       1.0783010                  1_GWF-(3,100,271)      -43.081751                  1_GWF-(1,123,373)
         58          2          8       2.3126519                  1_GWF-(1,191,295)      -115.10214                    1_GWF-(1,19,26)
         59          2          9       1.0431179                  1_GWF-(1,186,297)      -33.677262                  1_GWF-(1,126,375)
         60          2         10       12.224783                  1_GWF-(1,186,296)      -37.088242                   1_GWF-(1,73,172)
         61          2         11     -0.14385214                   1_GWF-(3,95,268)      -36.475570                   1_GWF-(1,73,172)
         62          2         12      -37.424455                  1_GWF-(1,185,295)       289.59975                    1_GWF-(1,11,34)
         63          2         13       44.622447                  1_GWF-(1,185,295)       51.615739                    1_GWF-(1,10,35)
         64          2         14       6.6199825                  1_GWF-(3,115,348)      -458.60742                    1_GWF-(1,11,34)
         65          2         15       1.1868344                  1_GWF-(3,216,304)       26.552633                  1_GWF-(1,122,374)
         66          2         16       5.0378788                  1_GWF-(3,119,340)      -31.345648                    1_GWF-(1,16,29)
         67          2         17      -1.5934611                  1_GWF-(3,211,305)       25.297053                     1_GWF-(1,40,5)
         68          2         18      0.11553688                  1_GWF-(3,113,339)       34.459530                     1_GWF-(1,36,9)
         69          2         19      0.58905492                  1_GWF-(3,115,339)      -26.666541                     1_GWF-(1,9,36)
         70          2         20       14.961696                  1_GWF-(3,116,339)      -92.487291                     1_GWF-(1,9,36)
         71          2         21      -8.1497441                  1_GWF-(3,115,341)       96.161841                     1_GWF-(1,43,2)
         72          2         22       69.745646                  1_GWF-(3,121,333)      -1952.0469                     1_GWF-(1,9,36)
         73          2         23      -97.087006                  1_GWF-(3,121,333)      -41.520589                     1_GWF-(1,9,36)
         74          2         24      -6.3363440                   1_GWF-(3,42,194)      -121.01419                     1_GWF-(1,9,36)
         75          2         25 -5.22346615E-02                   1_GWF-(1,43,287)      -32.142293                  1_GWF-(1,130,334)
         76          2         26       1.2290478                  1_GWF-(1,120,334)      -189.04138                    1_GWF-(1,12,33)
         77          2         27       1.2934483                   1_GWF-(3,44,194)      -100.31451                    1_GWF-(1,11,34)
         78          2         28      -55.808464                   1_GWF-(3,44,194)      -79.484502                  1_GWF-(1,133,328)
         79          2         29       103.27913                   1_GWF-(3,46,193)       80.918340                    1_GWF-(1,10,35)
         80          2         30  4.48154586E-02                  1_GWF-(3,129,207)       25.188971                     1_GWF-(1,9,36)
         81          2         31      -1.4348510                   1_GWF-(3,43,195)       24.589012                    1_GWF-(1,10,35)
         82          2         32       6.7051459                   1_GWF-(3,48,192)      -12.786313                  1_GWF-(1,233,136)
         83          2         33       7.7871378                  1_GWF-(3,229,185)       44.088667                    1_GWF-(1,10,35)
         84          2         34       11.909901                   1_GWF-(1,45,195)       94.362743                    1_GWF-(1,10,35)
         85          2         35      -8.4413827                   1_GWF-(1,45,194)       13.570752                    1_GWF-(1,10,35)
         86          2         36      0.56310567                   1_GWF-(3,59,193)       14.734865                    1_GWF-(1,10,35)
         87          2         37       1.4912054                  1_GWF-(3,229,186)       38.934934                    1_GWF-(1,10,35)
         88          2         38      0.34106225                  1_GWF-(1,229,185)      -12.165407                  1_GWF-(1,233,136)
         89          2         39      0.42655773                  1_GWF-(1,234,174)      -12.106266                  1_GWF-(1,233,136)
         90          2         40      -3.0119079                  1_GWF-(2,234,176)       22.481919                    1_GWF-(1,11,34)
         91          2         41       5.5514200                  1_GWF-(2,234,176)      -11.852428                  1_GWF-(1,233,136)
         92          2         42       1.4552709                  1_GWF-(3,234,173)       21.700192                    1_GWF-(1,12,33)
         93          2         43       26.238895                  1_GWF-(3,234,175)      -11.410869                   1_GWF-(1,187,90)
         94          2         44       5.9897611                  1_GWF-(1,234,170)      -11.756677                   1_GWF-(1,185,88)
         95          2         45      -5.1373067                  1_GWF-(3,234,175)       15.548136                    1_GWF-(1,10,35)
         96          2         46       34.465466                  1_GWF-(3,234,174)       15.968749                    1_GWF-(1,12,33)
         97          2         47      0.61186605                  1_GWF-(1,234,139)       16.523987                    1_GWF-(1,11,34)
         98          2         48      -1.1470008                  1_GWF-(3,233,177)      -13.426705                   1_GWF-(1,181,84)
         99          2         49      0.93514869                   1_GWF-(1,181,82)       55.288690                    1_GWF-(1,11,34)
        100          2         50      0.37946591                  1_GWF-(3,233,178)      -12.807225                   1_GWF-(1,182,85)
        101          3          1      0.41127443                  1_GWF-(1,163,347)       14.783204                  1_GWF-(1,173,379)
        102          3          2     -0.71777174                  1_GWF-(1,173,380)      -35.669440                  1_GWF-(1,175,379)
        103          3          3      -1.3477410                  1_GWF-(1,182,377)      -67.076782                  1_GWF-(1,175,379)
        104          3          4       2.7682025                   1_GWF-(1,182,83)      -78.521421                  1_GWF-(1,171,379)
        105          3          5       3.2461936                   1_GWF-(1,182,83)      -69.277270                  1_GWF-(1,171,379)
        106          3          6       2.0291887                   1_GWF-(1,182,83)      -58.268773                  1_GWF-(1,167,379)
        107          3          7       1.0314496                   1_GWF-(1,182,83)      -43.926528                  1_GWF-(1,165,379)
        108          3          8      0.52368780                   1_GWF-(1,182,83)      -33.965426                  1_GWF-(1,164,379)
        109          3          9      0.69736709                  1_GWF-(3,173,379)      -25.773588                  1_GWF-(1,163,379)
        110          3         10      0.80270155                  1_GWF-(3,172,379)      -22.527274                  1_GWF-(1,191,373)
        111          3         11      0.81605898                  1_GWF-(3,172,379)      -21.636558                  1_GWF-(1,191,373)
        112          3         12      0.78065258                  1_GWF-(3,171,379)      -21.250970                  1_GWF-(1,193,370)
        113          3         13      0.84716169                  1_GWF-(3,184,379)      -21.077994                  1_GWF-(1,195,367)
        114          3         14       1.0459224                  1_GWF-(3,187,379)      -20.482719                  1_GWF-(1,195,367)
        115          3         15       1.2863251                  1_GWF-(3,188,378)      -20.347892                  1_GWF-(1,198,361)
        116          3         16       1.4500667                  1_GWF-(3,189,377)      -20.912422                  1_GWF-(1,199,359)
        117          3         17       1.4856438                  1_GWF-(3,190,375)       25.575600                  1_GWF-(1,162,379)
        118          3         18       1.4658124                  1_GWF-(3,192,372)       38.851973                  1_GWF-(1,190,375)
        119          3         19       1.2822052                  1_GWF-(3,194,369)       71.549080                  1_GWF-(1,190,375)
        120          3         20       1.1258119                  1_GWF-(1,193,371)       51.166650                  1_GWF-(1,190,375)
        121          3         21      0.81352050                  1_GWF-(3,233,170)       57.233257                  1_GWF-(1,192,372)
        122          3         22      0.66884968                  1_GWF-(3,233,168)       53.267293                  1_GWF-(1,192,372)
        123          3         23      0.56980875                  1_GWF-(3,233,164)       61.211332                  1_GWF-(1,192,372)
        124          3         24      0.49683256                  1_GWF-(3,233,158)       48.540305                  1_GWF-(1,192,372)
        125          3         25     -0.60383679                  1_GWF-(3,187,379)       47.772594                  1_GWF-(1,192,372)
        126          3         26     -0.61596749                  1_GWF-(3,187,379)       31.314807                  1_GWF-(1,192,372)
        127          3         27     -0.73691792                  1_GWF-(3,188,378)       24.127332                  1_GWF-(1,194,368)
        128          3         28     -0.85828606                  1_GWF-(3,188,378)       19.367487                  1_GWF-(1,196,365)
        129          3         29     -0.96784750                  1_GWF-(3,188,378)      -17.787158                    1_GWF-(1,15,30)
        130          3         30      -1.0286721                  1_GWF-(3,189,377)       16.593674                  1_GWF-(1,200,356)
        131          3         31      -1.0238007                  1_GWF-(3,189,376)      -30.172625                    1_GWF-(1,17,28)
        132          3         32     -0.99348215                  1_GWF-(3,190,375)      -23.255579                    1_GWF-(1,17,28)
        133          3         33      0.79837882                  1_GWF-(3,231,132)      -38.745349                    1_GWF-(1,17,28)
        134          3         34      0.64854675                  1_GWF-(3,231,132)      -22.425384                  1_GWF-(1,191,373)
        135          3         35      0.45804083                  1_GWF-(3,231,132)      -27.778532                    1_GWF-(1,19,26)
        136          3         36      0.25612530                  1_GWF-(3,232,133)      -21.828359                  1_GWF-(1,191,373)
        137          3         37      0.20209549                  1_GWF-(3,187,379)      -20.046291                  1_GWF-(1,191,373)
        138          3         38       2.2672349                  1_GWF-(3,188,378)      -60.187470                     1_GWF-(1,37,8)
        139          3         39  1.42695804E-02                     1_GWF-(1,37,8)       5.7869222                  1_GWF-(1,186,328)
        140          3         40 -4.77002922E-02                  1_GWF-(1,211,331)      -8.9117385                     1_GWF-(1,37,8)
        141          3         41     -0.12428963                  1_GWF-(1,211,332)      -20.363390                     1_GWF-(1,37,8)
        142          3         42 -5.77242722E-02                  1_GWF-(1,210,333)       4.0514242                  1_GWF-(1,186,329)
        143          3         43     -0.58516512                  1_GWF-(1,210,334)      -13.507867                    1_GWF-(1,30,15)
        144          3         44 -3.14678866E-03                    1_GWF-(1,31,14)      -3.2582491                    1_GWF-(1,17,28)
        145          3         45      -46.841011                  1_GWF-(1,217,274)      -323.20245                  1_GWF-(1,209,277)
        146          3         46       46.951120                  1_GWF-(1,217,274)      -5.1146454                    1_GWF-(1,32,13)
        147          3         47  4.36051593E-02                    1_GWF-(3,1,132)      -6.4075075                    1_GWF-(1,33,12)
        148          3         48 -2.90611925E-03                    1_GWF-(1,14,31)      -3.0719009                    1_GWF-(1,14,31)
        149          3         49  1.21802104E-03                  1_GWF-(1,197,363)      -2.9868316                    1_GWF-(1,15,30)
        150          3         50  6.76455319E-03                    1_GWF-(1,10,35)      -4.2802960                    1_GWF-(1,15,30)
        151          4          1      -1.3445226                  1_GWF-(1,163,348)       72.987446                  1_GWF-(1,163,348)
        152          4          2     -0.86879990                  1_GWF-(1,163,351)       21.928498                  1_GWF-(1,163,347)
        153          4          3     -0.59437694                  1_GWF-(1,164,355)       12.539221                  1_GWF-(1,170,356)
        154          4          4     -0.47964765                  1_GWF-(1,166,357)       9.8077272                  1_GWF-(1,174,353)
        155          4          5     -0.45701847                  1_GWF-(1,167,359)       9.3900180                  1_GWF-(1,161,379)
        156          4          6     -0.52020570                  1_GWF-(3,167,360)       10.144318                  1_GWF-(1,192,372)
        157          4          7     -0.67487326                  1_GWF-(3,168,362)       11.564576                  1_GWF-(1,192,372)
        158          4          8     -0.69025203                  1_GWF-(3,169,365)       12.026336                  1_GWF-(1,192,372)
        159          4          9     -0.61817890                  1_GWF-(3,170,376)       12.606637                  1_GWF-(1,192,372)
        160          4         10     -0.60026736                  1_GWF-(3,168,378)       13.094491                  1_GWF-(1,192,372)
        161          4         11     -0.58938323                  1_GWF-(3,165,379)       15.206277                  1_GWF-(1,192,372)
        162          4         12     -0.64951013                  1_GWF-(3,188,378)       17.687426                  1_GWF-(1,192,372)
        163          4         13     -0.69416395                  1_GWF-(3,190,375)       14.571638                  1_GWF-(1,192,372)
        164          4         14     -0.68457449                  1_GWF-(3,192,372)       14.104019                  1_GWF-(1,192,372)
        165          4         15     -0.64418189                  1_GWF-(3,193,370)       12.467344                  1_GWF-(1,202,352)
        166          4         16     -0.57521593                  1_GWF-(3,196,366)      -12.603319                  1_GWF-(1,191,373)
        167          4         17     -0.54374807                  1_GWF-(3,197,363)      -15.946924                  1_GWF-(1,191,373)
        168          4         18     -0.53857842                  1_GWF-(3,199,360)      -19.008104                  1_GWF-(1,191,373)
        169          4         19     -0.49282795                  1_GWF-(1,198,362)      -19.201238                  1_GWF-(1,191,373)
        170          4         20     -0.44600800                  1_GWF-(1,199,359)      -18.124119                  1_GWF-(1,191,373)
        171          4         21     -0.40966950                  1_GWF-(1,201,355)      -15.338185                  1_GWF-(1,191,373)
        172          4         22     -0.38259571                  1_GWF-(1,203,351)      -14.948253                  1_GWF-(1,191,373)
        173          4         23     -0.36759504                  1_GWF-(1,205,348)      -13.999242                  1_GWF-(1,191,373)
        174          4         24     -0.36239208                  1_GWF-(1,206,346)      -12.992691                  1_GWF-(1,191,373)
        175          4         25     -0.35987488                  1_GWF-(1,207,343)      -10.768489                  1_GWF-(1,191,373)
        176          4         26     -0.35543676                  1_GWF-(1,208,340)      -9.6858247                  1_GWF-(1,195,367)
        177          4         27     -0.34675647                  1_GWF-(1,209,338)      -8.8985970                  1_GWF-(1,200,357)
        178          4         28     -0.32570267                  1_GWF-(1,210,334)      -8.5804470                  1_GWF-(1,200,357)
        179          4         29     -0.31459126                  1_GWF-(1,211,331)      -8.5397277                  1_GWF-(1,203,348)
        180          4         30     -0.31800019                  1_GWF-(1,212,328)      -8.5246458                  1_GWF-(1,203,347)
        181          4         31     -0.32001635                  1_GWF-(1,213,326)      -8.3286299                  1_GWF-(1,203,346)
        182          4         32     -0.31424700                  1_GWF-(1,213,323)      -8.0205610                  1_GWF-(1,202,344)
        183          4         33     -0.30517538                  1_GWF-(1,214,321)      -7.6289279                  1_GWF-(1,202,343)
        184          4         34     -0.28718137                  1_GWF-(1,214,317)      -7.1273206                  1_GWF-(1,202,343)
        185          4         35     -0.30728387                  1_GWF-(3,215,315)      -6.6479717                  1_GWF-(1,203,339)
        186          4         36     -0.21869336                  1_GWF-(3,216,309)       11.323338                    1_GWF-(1,13,32)
        187          4         37     -0.81829332                  1_GWF-(3,216,310)      -6.3641275                  1_GWF-(1,186,330)
        188          4         38       1.2133248                  1_GWF-(3,215,311)      -6.8550201                  1_GWF-(1,202,340)
        189          4         39      -1.0379485                  1_GWF-(3,217,295)       17.689039                    1_GWF-(1,13,32)
        190          4         40      0.29889220                    1_GWF-(3,1,123)      -4.3204932                  1_GWF-(1,203,339)
        191          4         41     -0.20241424                  1_GWF-(1,199,279)       11.951924                    1_GWF-(1,13,32)
        192          4         42     -0.86509097                    1_GWF-(3,1,124)      -3.7011915                  1_GWF-(1,184,330)
        193          4         43      0.39391228                    1_GWF-(1,1,123)       7.8649815                     1_GWF-(1,5,40)
        194          4         44      0.93923628                    1_GWF-(3,1,124)       5.4977319                     1_GWF-(1,5,40)
        195          4         45      0.11354303                    1_GWF-(3,1,125)      -2.8922730                  1_GWF-(1,185,328)
        196          4         46     -0.32189235                    1_GWF-(3,1,125)      -2.9500111                  1_GWF-(1,185,328)
        197          4         47  2.16703885E-02                    1_GWF-(3,1,126)      -2.9367266                  1_GWF-(1,185,328)
        198          4         48       1.5910265                    1_GWF-(3,1,125)      -2.7113463                  1_GWF-(1,185,325)
        199          4         49     -0.85399576                    1_GWF-(3,1,122)       12.912893                     1_GWF-(1,7,38)
        200          4         50  7.57787700E-02                    1_GWF-(3,1,127)      -2.1301358                  1_GWF-(1,185,328)
        201          5          1       2.5786066                  1_GWF-(3,213,323)       8.7279564                   1_GWF-(1,57,362)
        202          5          2      0.48703624                  1_GWF-(3,208,340)       37.052600                  1_GWF-(1,190,375)
        203          5          3      0.32413174                  1_GWF-(3,206,345)      -4.6419135                  1_GWF-(1,191,373)
        204          5          4  5.38964863E-02                  1_GWF-(3,164,359)      -10.018020                  1_GWF-(1,191,373)
        205          5          5      0.33607180                  1_GWF-(3,169,361)      -3.2896643                  1_GWF-(1,191,373)
        206          5          6      0.11074566                  1_GWF-(1,188,378)      -9.3829782                  1_GWF-(1,191,373)
        207          5          7       1.4076581                  1_GWF-(3,180,379)      -3.3079994                  1_GWF-(1,147,376)
        208          5          8      0.11491525                  1_GWF-(3,195,367)      -14.613058                  1_GWF-(1,192,372)
        209          5          9     -0.25015869                  1_GWF-(3,176,372)       6.5431951                  1_GWF-(1,190,375)
        210          5         10      0.14210945                  1_GWF-(1,189,377)      -1.9607581                  1_GWF-(1,175,254)
        211          5         11      0.72126308                  1_GWF-(3,189,377)       2.1287409                  1_GWF-(1,193,363)
        212          5         12 -2.10927391E-03                  1_GWF-(1,180,376)       1.7807231                  1_GWF-(1,192,364)
        213          5         13 -7.35958866E-03                  1_GWF-(3,175,377)       1.9156669                  1_GWF-(1,192,372)
        214          5         14       2.2759515                   1_GWF-(1,181,82)       9.5290766                  1_GWF-(1,148,372)
        215          5         15      -2.1307404                   1_GWF-(1,181,82)       3.2827486                  1_GWF-(1,192,372)
        216          5         16  6.94614001E-02                  1_GWF-(1,192,233)       4.0122445                  1_GWF-(1,192,372)
        217          5         17      0.20338559                  1_GWF-(1,192,237)       3.2420317                  1_GWF-(1,192,372)
        218          5         18      0.23906150                  1_GWF-(1,190,236)      -3.0990494                     1_GWF-(1,38,7)
        219          5         19     -0.91799629                  1_GWF-(1,191,236)       3.1070735                  1_GWF-(1,192,372)
        220          5         20       2.2965003                  1_GWF-(1,190,236)      -11.485899                     1_GWF-(1,38,7)
        221          5         21       11.382751                  1_GWF-(1,190,236)       15.208973                   1_GWF-(1,42,329)
        222          5         22      -32.960399                   1_GWF-(3,197,98)      -101.74298                     1_GWF-(1,37,8)
        223          5         23       2.2204335                   1_GWF-(2,196,97)      -18.493597                  1_GWF-(1,180,241)
        224          5         24      -4.2693889                   1_GWF-(3,196,97)       27.540989                  1_GWF-(1,191,373)
        225          5         25       9.7628734                   1_GWF-(3,196,97)       19.422095                  1_GWF-(1,192,372)
        226          5         26      -1.4784675                   1_GWF-(1,194,95)       24.902238                  1_GWF-(1,192,372)
        227          5         27       13.727689                   1_GWF-(1,195,96)       4.5971354                  1_GWF-(1,191,373)
        228          5         28     -0.33631068                   1_GWF-(3,194,95)       3.9838518                  1_GWF-(1,192,372)
        229          5         29       2.8365469                   1_GWF-(3,195,96)       1.3534572                  1_GWF-(1,192,372)
        230          5         30      0.55468053                   1_GWF-(3,195,96)      -1.2335650                  1_GWF-(1,151,180)
        231          5         31      0.95814930                  1_GWF-(3,228,187)      -16.050909                    1_GWF-(1,30,15)
        232          5         32     -0.17115731                   1_GWF-(1,189,90)      0.90686972                   1_GWF-(1,179,82)
        233          5         33  6.03175562E-02                  1_GWF-(3,229,181)       1.6455547                  1_GWF-(1,192,372)
        234          5         34      0.12597079                  1_GWF-(3,228,129)       1.0651818                  1_GWF-(1,192,372)
        235          5         35      0.26253129                  1_GWF-(3,231,181)      0.97526591                   1_GWF-(1,181,84)
        236          5         36      0.26422065                  1_GWF-(1,225,194)      -4.2060285                     1_GWF-(1,40,5)
        237          5         37      0.10246712                  1_GWF-(2,229,182)     -0.96374125                   1_GWF-(1,74,221)
        238          5         38      0.16626499                  1_GWF-(2,230,184)      -1.2805844                     1_GWF-(1,40,5)
        239          5         39     -0.57632571                  1_GWF-(1,230,184)      -1.6246535                    1_GWF-(1,15,30)
        240          5         40       3.2774419                  1_GWF-(1,230,184)      -1.2563221                   1_GWF-(1,42,218)
        241          5         41      0.59952524                  1_GWF-(3,230,184)       1.5124827                    1_GWF-(1,18,27)
        242          5         42      -1.9490889                  1_GWF-(1,229,186)      -1.2511410                   1_GWF-(1,42,203)
        243          5         43 -9.87222658E-02                  1_GWF-(3,232,180)      -2.4321469                     1_GWF-(1,38,7)
        244          5         44       1.3356260                  1_GWF-(3,230,183)      -1.1857941                   1_GWF-(1,42,200)
        245          5         45      0.41692873                  1_GWF-(2,230,184)      -1.1898676                   1_GWF-(1,42,200)
        246          5         46  3.91383733E-02                   1_GWF-(3,42,201)       1.9851914                     1_GWF-(1,39,6)
        247          5         47 -3.01277804E-02                  1_GWF-(1,232,179)      -1.1261002                   1_GWF-(1,42,201)
        248          5         48       1.0709222                  1_GWF-(1,232,180)      -1.1595837                   1_GWF-(1,42,215)
        249          5         49     -0.69271856                  1_GWF-(1,223,199)       6.7282191                     1_GWF-(1,39,6)
        250          5         50  4.66250493E-02                  1_GWF-(3,234,162)      -1.0058432                   1_GWF-(1,42,211)
        251          6          1     -0.43039102                     1_GWF-(1,7,66)       33.405474                     1_GWF-(1,8,67)
        252          6          2     -0.15047774                     1_GWF-(1,6,68)       11.307614                     1_GWF-(1,2,66)
        253          6          3     -0.10281543                     1_GWF-(1,2,68)       6.8678891                     1_GWF-(1,2,71)
        254          6          4 -9.88623740E-02                     1_GWF-(1,1,70)       4.3604942                     1_GWF-(1,2,75)
        255          6          5 -8.99227237E-02                     1_GWF-(1,1,73)       3.2580373                     1_GWF-(1,2,78)
        256          6          6 -8.68979482E-02                     1_GWF-(1,1,76)      -2.5966882                     1_GWF-(1,2,68)
        257          6          7 -9.18498422E-02                     1_GWF-(1,1,78)      -2.8637229                     1_GWF-(1,2,68)
        258          6          8 -9.74567904E-02                     1_GWF-(1,1,80)      -3.0147758                     1_GWF-(1,2,69)
        259          6          9     -0.10570109                     1_GWF-(3,2,77)      -2.7229647                     1_GWF-(1,2,74)
        260          6         10     -0.12757830                     1_GWF-(3,2,79)      -2.4841773                     1_GWF-(1,2,79)
        261          6         11     -0.14036257                     1_GWF-(3,2,82)      -2.4382436                     1_GWF-(1,2,79)
        262          6         12     -0.13956285                     1_GWF-(3,2,85)       2.7903168                  1_GWF-(1,192,372)
        263          6         13     -0.13254512                     1_GWF-(3,2,88)       2.5718442                    1_GWF-(1,11,34)
        264          6         14     -0.11659960                     1_GWF-(3,2,92)       3.1413236                  1_GWF-(1,192,372)
        265          6         15     -0.10594873                     1_GWF-(3,1,96)       3.3408053                  1_GWF-(1,192,372)
        266          6         16     -0.10238582                     1_GWF-(3,1,99)       3.2889137                  1_GWF-(1,192,372)
        267          6         17 -9.40764741E-02                    1_GWF-(3,1,102)       2.6038959                  1_GWF-(1,192,372)
        268          6         18 -8.65703509E-02                    1_GWF-(3,1,105)       2.1716099                  1_GWF-(1,192,372)
        269          6         19  9.01624338E-02                   1_GWF-(3,42,211)       1.9471247                  1_GWF-(1,192,372)
        270          6         20  9.01155114E-02                   1_GWF-(3,42,212)       2.4929325                  1_GWF-(1,192,372)
        271          6         21  9.45515702E-02                   1_GWF-(3,42,212)       2.5320853                  1_GWF-(1,192,372)
        272          6         22  9.74304768E-02                   1_GWF-(3,42,212)       2.7977668                  1_GWF-(1,192,372)
        273          6         23  9.54889900E-02                   1_GWF-(3,42,212)       2.5627594                  1_GWF-(1,192,372)
        274          6         24  9.11863708E-02                   1_GWF-(3,42,212)       2.0711141                    1_GWF-(1,32,13)
        275          6         25  8.44793716E-02                   1_GWF-(3,42,212)      -2.1334668                     1_GWF-(1,5,40)
        276          6         26  7.87088818E-02                   1_GWF-(3,42,212)      -2.3342860                     1_GWF-(1,5,40)
        277          6         27  7.17414145E-02                   1_GWF-(3,42,212)      -2.2715708                     1_GWF-(1,5,40)
        278          6         28  6.31611219E-02                   1_GWF-(3,41,212)      -2.4712001                     1_GWF-(1,7,38)
        279          6         29  5.69695042E-02                   1_GWF-(3,41,212)      -2.5019296                     1_GWF-(1,7,38)
        280          6         30  5.28829258E-02                   1_GWF-(3,41,212)      -2.5478572                     1_GWF-(1,7,38)
        281          6         31  4.82475132E-02                   1_GWF-(3,41,212)      -2.3262998                     1_GWF-(1,7,38)
        282          6         32  4.45454121E-02                    1_GWF-(1,2,103)      -1.9990568                     1_GWF-(1,9,36)
        283          6         33  4.10440133E-02                    1_GWF-(1,2,105)      -1.8155099                    1_GWF-(1,13,32)
        284          6         34  4.00026967E-02                    1_GWF-(1,2,107)      -1.6590770                    1_GWF-(1,15,30)
        285          6         35  3.50316391E-02                    1_GWF-(1,1,111)      -1.8222678                    1_GWF-(1,15,30)
        286          6         36  4.83532197E-02                    1_GWF-(1,1,113)      -1.1643541                    1_GWF-(1,17,28)
        287          6         37  5.46282988E-02                    1_GWF-(1,2,133)      -3.8803871                    1_GWF-(1,15,30)
        288          6         38 -4.25840838E-02                    1_GWF-(1,1,118)     -0.85659779                    1_GWF-(1,15,30)
        289          6         39      0.10429383                    1_GWF-(1,1,119)      -1.2629674                    1_GWF-(1,15,30)
        290          6         40  2.22419528E-02                    1_GWF-(3,1,124)     -0.84999180                    1_GWF-(1,17,28)
        291          6         41  4.16468236E-02                    1_GWF-(3,1,128)     -0.66718356                    1_GWF-(1,31,14)
        292          6         42     -0.11589911                    1_GWF-(3,1,116)      -3.7717697                    1_GWF-(1,15,30)
        293          6         43      0.15068617                    1_GWF-(3,1,125)     -0.49371343                    1_GWF-(1,31,14)
        294          6         44  8.07243928E-02                   1_GWF-(1,14,145)      -2.9148108                    1_GWF-(1,17,28)
        295          6         45  8.25740516E-02                   1_GWF-(3,41,248)     -0.29478790                   1_GWF-(1,42,330)
        296          6         46  7.42232304E-03                   1_GWF-(3,41,327)     -0.80149917                     1_GWF-(1,6,39)
        297          6         47 -3.49431102E-02                   1_GWF-(3,41,237)     -0.69134577                     1_GWF-(1,7,38)
        298          6         48  2.78144267E-02                   1_GWF-(3,41,267)     -0.28886095                   1_GWF-(1,42,330)
        299          6         49  3.13263986E-02                   1_GWF-(3,41,309)     -0.99926200                     1_GWF-(1,9,36)
        300          6         50  1.51331847E-02                   1_GWF-(3,41,285)     -0.26790940                   1_GWF-(1,42,329)
        301          7          1     -0.27914614                   1_GWF-(1,94,158)       32.370760                  1_GWF-(1,118,219)
        302          7          2     -0.17671442                  1_GWF-(1,116,220)       10.258391                  1_GWF-(1,123,222)
        303          7          3 -9.61670548E-02                  1_GWF-(1,122,222)       4.5141132                  1_GWF-(1,127,216)
        304          7          4 -4.51540303E-02                  1_GWF-(1,121,226)       2.8542521                  1_GWF-(1,130,214)
        305          7          5 -3.24103845E-02                  1_GWF-(1,128,214)       1.9051514                  1_GWF-(1,132,211)
        306          7          6 -2.61059902E-02                  1_GWF-(1,130,213)       1.1772513                  1_GWF-(1,134,208)
        307          7          7 -2.42527389E-02                  1_GWF-(3,121,216)      0.85718105                   1_GWF-(1,99,214)
        308          7          8 -2.60292993E-02                  1_GWF-(3,121,216)      0.65105329                   1_GWF-(1,97,209)
        309          7          9 -2.58318809E-02                  1_GWF-(3,120,216)     -0.59102228                  1_GWF-(1,131,213)
        310          7         10 -2.50424247E-02                  1_GWF-(3,119,216)     -0.59751835                     1_GWF-(1,9,36)
        311          7         11 -2.35279076E-02                  1_GWF-(3,116,216)     -0.60877094                     1_GWF-(1,9,36)
        312          7         12 -2.21153210E-02                  1_GWF-(3,111,216)     -0.59497928                     1_GWF-(1,9,36)
        313          7         13 -2.08844713E-02                  1_GWF-(3,107,216)      0.55050194                  1_GWF-(1,192,372)
        314          7         14 -1.98834150E-02                  1_GWF-(3,103,215)      0.59999527                  1_GWF-(1,192,372)
        315          7         15 -1.89036392E-02                  1_GWF-(3,100,214)      0.71355359                  1_GWF-(1,192,372)
        316          7         16 -1.91995633E-02                  1_GWF-(3,100,191)      0.86638044                  1_GWF-(1,192,372)
        317          7         17 -2.12764309E-02                   1_GWF-(3,98,191)      0.98198825                  1_GWF-(1,190,375)
        318          7         18 -2.35258305E-02                   1_GWF-(3,96,192)      0.89328065                  1_GWF-(1,190,375)
        319          7         19 -2.40872554E-02                   1_GWF-(3,93,193)      0.72799309                  1_GWF-(1,190,375)
        320          7         20 -2.32885566E-02                   1_GWF-(3,91,194)      0.66556717                  1_GWF-(1,190,375)
        321          7         21 -2.12975262E-02                   1_GWF-(3,87,196)      0.77381004                  1_GWF-(1,190,375)
        322          7         22 -1.98416709E-02                   1_GWF-(3,84,198)      0.90671166                  1_GWF-(1,190,375)
        323          7         23  1.97302762E-02                   1_GWF-(3,41,336)       1.0243564                  1_GWF-(1,190,375)
        324          7         24  2.14537116E-02                  1_GWF-(3,218,257)      0.93364710                  1_GWF-(1,190,375)
        325          7         25  2.24508065E-02                  1_GWF-(3,218,258)     -0.86694987                  1_GWF-(1,191,373)
        326          7         26  2.29583262E-02                  1_GWF-(3,218,258)     -0.56815714                  1_GWF-(1,191,373)
        327          7         27  2.28808259E-02                  1_GWF-(3,218,259)     -0.50947722                   1_GWF-(1,95,191)
        328          7         28  2.19328967E-02                  1_GWF-(3,219,260)     -0.54617181                    1_GWF-(1,18,27)
        329          7         29  2.10230377E-02                  1_GWF-(3,219,261)     -0.66226947                    1_GWF-(1,18,27)
        330          7         30  2.12638478E-02                  1_GWF-(3,219,263)     -0.69544711                    1_GWF-(1,18,27)
        331          7         31  2.20319749E-02                  1_GWF-(3,219,265)     -0.73235554                    1_GWF-(1,18,27)
        332          7         32  2.24125166E-02                  1_GWF-(1,219,268)     -0.64717121                    1_GWF-(1,18,27)
        333          7         33  2.27797594E-02                  1_GWF-(1,219,270)     -0.53316911                    1_GWF-(1,16,29)
        334          7         34  2.20836312E-02                  1_GWF-(1,219,274)      0.46477660                    1_GWF-(1,15,30)
        335          7         35  2.34728827E-02                  1_GWF-(1,219,277)     -0.43750060                   1_GWF-(1,80,211)
        336          7         36  1.73804996E-02                  1_GWF-(1,218,285)      0.87120391                    1_GWF-(1,15,30)
        337          7         37  4.99448981E-02                  1_GWF-(1,218,285)     -0.36133483                   1_GWF-(1,79,213)
        338          7         38  4.68473507E-02                  1_GWF-(1,219,281)      0.43244945                    1_GWF-(1,16,29)
        339          7         39 -6.13363376E-02                    1_GWF-(3,1,132)       1.0012704                    1_GWF-(1,15,30)
        340          7         40  3.28612967E-02                  1_GWF-(3,215,311)     -0.20732777                   1_GWF-(1,94,199)
        341          7         41  1.17376950E-02                  1_GWF-(3,212,328)      0.57314757                    1_GWF-(1,15,30)
        342          7         42  9.23502527E-02                  1_GWF-(3,213,323)     -0.27131022                   1_GWF-(1,42,194)
        343          7         43 -6.14721927E-02                  1_GWF-(1,217,300)      0.91616528                     1_GWF-(1,4,41)
        344          7         44  1.20888389E-02                  1_GWF-(3,211,333)     -0.21356249                   1_GWF-(1,42,206)
        345          7         45 -1.07538214E-03                   1_GWF-(3,41,329)      0.38284151                     1_GWF-(1,5,40)
        346          7         46  5.10765133E-04                   1_GWF-(3,41,223)     -0.21368233                   1_GWF-(1,42,206)
        347          7         47  3.05799273E-02                  1_GWF-(1,209,339)      0.24507328                    1_GWF-(1,17,28)
        348          7         48  9.47835419E-03                  1_GWF-(1,206,346)      0.33298003                    1_GWF-(1,17,28)
        349          7         49 -8.33452248E-02                  1_GWF-(1,207,343)     -0.20397727                   1_GWF-(1,42,205)
        350          7         50      0.12591159                  1_GWF-(1,202,353)     -0.22331878                   1_GWF-(1,42,199)
        351          8          1 -3.88058234E-02                  1_GWF-(1,117,164)       4.0659861                  1_GWF-(1,120,212)
        352          8          2 -2.45865114E-02                  1_GWF-(1,117,214)       1.4743634                  1_GWF-(1,120,209)
        353          8          3 -1.42521882E-02                  1_GWF-(1,118,207)      0.75054373                  1_GWF-(1,127,202)
        354          8          4 -9.43684229E-03                  1_GWF-(1,116,206)      0.52959678                  1_GWF-(1,130,199)
        355          8          5 -7.76523529E-03                  1_GWF-(1,114,204)      0.36841760                  1_GWF-(1,132,201)
        356          8          6 -7.07453239E-03                  1_GWF-(1,113,201)      0.28418235                  1_GWF-(1,136,201)
        357          8          7 -6.34030995E-03                  1_GWF-(1,112,198)      0.23296490                  1_GWF-(1,138,201)
        358          8          8 -6.75845260E-03                  1_GWF-(3,119,197)      0.32362338                    1_GWF-(1,21,24)
        359          8          9 -7.31150077E-03                  1_GWF-(3,119,196)      0.35651526                    1_GWF-(1,21,24)
        360          8         10 -7.48784923E-03                  1_GWF-(3,120,196)      0.35722441                    1_GWF-(1,21,24)
        361          8         11 -7.22878200E-03                  1_GWF-(3,128,198)      0.32349617                    1_GWF-(1,21,24)
        362          8         12  6.87215400E-03                   1_GWF-(1,42,218)      0.33574083                    1_GWF-(1,21,24)
        363          8         13  7.02473380E-03                   1_GWF-(1,42,218)     -0.31107142                  1_GWF-(1,191,373)
        364          8         14  7.23928041E-03                   1_GWF-(1,42,218)     -0.38374155                  1_GWF-(1,191,373)
        365          8         15  7.80122245E-03                   1_GWF-(1,41,219)     -0.36907747                  1_GWF-(1,191,373)
        366          8         16  8.40337778E-03                   1_GWF-(1,41,219)     -0.34181560                  1_GWF-(1,191,373)
        367          8         17  8.83601907E-03                   1_GWF-(1,41,219)     -0.26405223                  1_GWF-(1,191,373)
        368          8         18  9.20657092E-03                   1_GWF-(3,41,219)     -0.26278091                  1_GWF-(1,191,373)
        369          8         19  9.38518599E-03                   1_GWF-(3,41,219)     -0.24929412                  1_GWF-(1,191,373)
        370          8         20  9.32755877E-03                   1_GWF-(3,41,219)      0.33987120                  1_GWF-(1,190,375)
        371          8         21  9.80221328E-03                   1_GWF-(3,41,219)      0.34631964                  1_GWF-(1,190,375)
        372          8         22  1.03227390E-02                   1_GWF-(3,41,219)      0.39126347                  1_GWF-(1,190,375)
        373          8         23  9.89043924E-03                   1_GWF-(3,41,220)      0.34754159                  1_GWF-(1,190,375)
        374          8         24  9.07322663E-03                   1_GWF-(3,41,222)      0.31247582                  1_GWF-(1,190,375)
        375          8         25  7.93057572E-03                   1_GWF-(3,41,224)      0.17717042                  1_GWF-(1,190,375)
        376          8         26  6.94182027E-03                   1_GWF-(3,41,227)     -0.13277726                   1_GWF-(1,89,185)
        377          8         27  6.22454667E-03                   1_GWF-(3,41,230)     -0.13522842                     1_GWF-(1,9,36)
        378          8         28  5.76525713E-03                   1_GWF-(3,41,234)     -0.17072944                     1_GWF-(1,9,36)
        379          8         29  5.77367578E-03                   1_GWF-(3,41,238)     -0.17740947                     1_GWF-(1,9,36)
        380          8         30  5.83119482E-03                   1_GWF-(3,41,242)     -0.19166475                     1_GWF-(1,9,36)
        381          8         31  5.62405873E-03                   1_GWF-(3,41,246)     -0.17245423                     1_GWF-(1,9,36)
        382          8         32  5.26902268E-03                  1_GWF-(3,214,321)     -0.16627315                     1_GWF-(1,9,36)
        383          8         33  4.91144452E-03                  1_GWF-(3,215,314)     -0.14934665                    1_GWF-(1,11,34)
        384          8         34  4.90936207E-03                  1_GWF-(3,216,307)     -0.17011204                    1_GWF-(1,11,34)
        385          8         35  4.54995130E-03                  1_GWF-(3,217,301)     -0.16380250                    1_GWF-(1,11,34)
        386          8         36  5.94775180E-03                  1_GWF-(1,218,297)     -0.19700960                    1_GWF-(1,11,34)
        387          8         37  3.49179734E-03                  1_GWF-(1,218,293)     -0.14202553                    1_GWF-(1,11,34)
        388          8         38      0.12570981                  1_GWF-(1,218,293)     -0.53028436                    1_GWF-(1,32,13)
        389          8         39     -0.11646141                  1_GWF-(1,218,293)     -0.25104648                    1_GWF-(1,13,32)
        390          8         40  3.14118218E-03                  1_GWF-(1,218,289) -9.51125410E-02                    1_GWF-(1,2,131)
        391          8         41  9.21279188E-03                  1_GWF-(1,218,287)     -0.23794009                    1_GWF-(1,32,13)
        392          8         42  1.19861053E-03                    1_GWF-(3,2,133)     -0.32559565                    1_GWF-(1,31,14)
        393          8         43  1.14284630E-03                  1_GWF-(1,218,287) -8.06124850E-02                    1_GWF-(1,2,131)
        394          8         44  8.74098880E-03                    1_GWF-(3,3,134)     -0.51430951                     1_GWF-(1,40,5)
        395          8         45  4.75361010E-03                  1_GWF-(1,218,288) -7.34882056E-02                   1_GWF-(1,42,343)
        396          8         46 -1.92735918E-02                  1_GWF-(1,218,288)     -0.12525076                     1_GWF-(1,40,5)
        397          8         47  3.15044701E-02                  1_GWF-(3,218,284)     -0.48719436                     1_GWF-(1,41,4)
        398          8         48 -9.71748435E-04                  1_GWF-(3,218,297) -5.93805255E-02                   1_GWF-(1,42,343)
        399          9          1 -1.33204741E-02                    1_GWF-(1,21,81)       1.4901271                     1_GWF-(1,2,61)
        400          9          2 -7.06591075E-03                     1_GWF-(1,1,64)      0.50950950                     1_GWF-(1,2,66)
        401          9          3 -4.62434628E-03                     1_GWF-(1,1,67)      0.27105181                     1_GWF-(1,2,71)
        402          9          4 -3.81722855E-03                     1_GWF-(1,1,69)      0.16924730                     1_GWF-(1,2,72)
        403          9          5 -3.30754302E-03                     1_GWF-(1,1,72)      0.11950065                     1_GWF-(1,2,78)
        404          9          6 -3.02593107E-03                     1_GWF-(1,1,75) -8.83605102E-02                     1_GWF-(1,2,63)
        405          9          7 -2.90321964E-03                     1_GWF-(1,1,77) -9.20793759E-02                     1_GWF-(1,2,68)
        406          9          8 -2.78504367E-03                     1_GWF-(1,1,80)      0.13811077                  1_GWF-(1,190,375)
        407          9          9 -2.85329149E-03                     1_GWF-(3,2,75)      0.15588381                  1_GWF-(1,190,375)
        408          9         10 -3.18980518E-03                     1_GWF-(3,2,77)      0.16255651                  1_GWF-(1,190,375)
        409          9         11 -3.27234680E-03                     1_GWF-(3,2,80)      0.14742262                  1_GWF-(1,190,375)
        410          9         12 -3.10831878E-03                     1_GWF-(3,2,84)      0.16524057                  1_GWF-(1,190,375)
        411          9         13 -2.86748797E-03                     1_GWF-(3,2,88)      0.16327157                  1_GWF-(1,190,375)
        412          9         14 -2.68619322E-03                     1_GWF-(3,2,92)      0.20862226                  1_GWF-(1,192,372)
        413          9         15  2.75841945E-03                   1_GWF-(3,41,348)      0.19996038                  1_GWF-(1,192,372)
        414          9         16  3.13813627E-03                   1_GWF-(3,41,348)      0.19059618                  1_GWF-(1,192,372)
        415          9         17  3.48927950E-03                   1_GWF-(3,41,348)      0.13244632                  1_GWF-(1,192,372)
        416          9         18  4.01059547E-03                   1_GWF-(3,41,348)  8.42102721E-02                    1_GWF-(1,2,131)
        417          9         19  4.55786727E-03                   1_GWF-(3,41,348)  9.00054090E-02                    1_GWF-(1,2,131)
        418          9         20  4.71268926E-03                   1_GWF-(3,41,348)     -0.10519312                    1_GWF-(1,10,35)
        419          9         21  4.98494136E-03                   1_GWF-(3,41,348)     -0.11830412                    1_GWF-(1,12,33)
        420          9         22  5.55842868E-03                   1_GWF-(3,41,348)     -0.14373353                    1_GWF-(1,12,33)
        421          9         23  5.81297917E-03                   1_GWF-(3,41,348)     -0.14459895                    1_GWF-(1,12,33)
        422          9         24  5.86428949E-03                   1_GWF-(3,41,348)     -0.13856365                    1_GWF-(1,12,33)
        423          9         25  5.63236383E-03                   1_GWF-(3,41,348)     -0.11214743                    1_GWF-(1,14,31)
        424          9         26  5.30642069E-03                   1_GWF-(3,41,347)     -0.10237345                    1_GWF-(1,16,29)
        425          9         27  5.04935445E-03                   1_GWF-(3,41,347)     -0.10233844                    1_GWF-(1,16,29)
        426          9         28  4.77387092E-03                   1_GWF-(3,41,346)     -0.11713392                    1_GWF-(1,16,29)
        427          9         29  4.70357677E-03                   1_GWF-(3,41,346)     -0.12696910                    1_GWF-(1,16,29)
        428          9         30  4.67046651E-03                   1_GWF-(3,41,345)     -0.13154451                    1_GWF-(1,16,29)
        429          9         31  4.43973146E-03                   1_GWF-(3,41,343)     -0.11621071                    1_GWF-(1,16,29)
        430          9         32  4.10554161E-03                   1_GWF-(3,41,342)      0.10128369                    1_GWF-(1,35,10)
        431          9         33  3.62888958E-03                   1_GWF-(3,41,340)  8.80034321E-02                    1_GWF-(1,35,10)
        432          9         34  3.23895373E-03                   1_GWF-(3,41,337)  7.99692939E-02                    1_GWF-(1,35,10)
        433          9         35  2.71400449E-03                  1_GWF-(1,219,261)  7.60988014E-02                    1_GWF-(1,35,10)
        434          9         36  2.68458294E-03                  1_GWF-(1,219,269)  7.18145434E-02                    1_GWF-(1,35,10)
        435          9         37  2.08521768E-03                  1_GWF-(1,218,285)  9.20455108E-02                    1_GWF-(1,35,10)
        436          9         38  5.21899885E-03                  1_GWF-(1,218,293) -4.41758761E-02                   1_GWF-(1,42,199)
        437          9         39  2.44229168E-03                  1_GWF-(1,201,355)      0.23112411                    1_GWF-(1,34,11)
        438          9         40 -1.53876891E-03                  1_GWF-(1,219,281) -3.72405687E-02                  1_GWF-(1,185,329)
        439          9         41  3.60919713E-03                  1_GWF-(3,213,324) -3.86756788E-02                   1_GWF-(1,42,204)
        440          9         42  4.89998216E-03                  1_GWF-(1,200,357)      0.20166020                     1_GWF-(1,36,9)
        441          9         43 -2.01501757E-04                  1_GWF-(1,219,279) -3.24554370E-02                  1_GWF-(1,185,329)
        442         10          1  1.27324658E-02                  1_GWF-(1,152,226)     -0.69063874                  1_GWF-(1,152,226)
        443         10          2 -2.61926778E-03                     1_GWF-(1,1,63)      0.19889278                     1_GWF-(1,2,66)
        444         10          3 -1.98119954E-03                     1_GWF-(1,1,66)      0.10637206                     1_GWF-(1,2,71)
        445         10          4 -1.74124806E-03                     1_GWF-(1,1,69)  6.91736803E-02                     1_GWF-(1,2,75)
        446         10          5 -1.76015437E-03                     1_GWF-(1,1,72) -5.57203575E-02                     1_GWF-(1,2,63)
        447         10          6 -1.81915532E-03                     1_GWF-(1,1,75) -6.73132933E-02                     1_GWF-(1,2,68)
        448         10          7 -1.99904298E-03                     1_GWF-(1,1,78) -7.82709070E-02                     1_GWF-(1,2,68)
        449         10          8 -2.19875392E-03                     1_GWF-(1,1,80) -6.95617450E-02                     1_GWF-(1,2,69)
        450         10          9 -2.52365200E-03                     1_GWF-(3,2,76)  7.59398431E-02                    1_GWF-(1,35,10)
        451         10         10 -2.84717876E-03                     1_GWF-(3,2,78)  7.04915767E-02                    1_GWF-(1,35,10)
        452         10         11 -2.86087142E-03                     1_GWF-(3,2,82)  7.91785826E-02                    1_GWF-(1,13,32)
        453         10         12 -2.64990178E-03                     1_GWF-(3,2,86)  8.45247981E-02                    1_GWF-(1,15,30)
        454         10         13 -2.42831172E-03                     1_GWF-(3,2,91)  9.09012637E-02                    1_GWF-(1,15,30)
        455         10         14 -2.34540895E-03                     1_GWF-(3,1,95)  8.85159780E-02                    1_GWF-(1,17,28)
        456         10         15 -2.33288419E-03                     1_GWF-(3,1,99)  8.79186283E-02                    1_GWF-(1,19,26)
        457         10         16 -2.24412266E-03                    1_GWF-(3,1,102)  7.84668503E-02                    1_GWF-(1,21,24)
        458         10         17 -2.08649961E-03                    1_GWF-(3,1,106)  7.31779321E-02                    1_GWF-(1,21,24)
        459         10         18  2.03084602E-03                  1_GWF-(1,201,355)  5.10461896E-02                    1_GWF-(1,23,22)
        460         10         19  1.97200957E-03                  1_GWF-(1,202,354)  4.13121273E-02                    1_GWF-(1,23,22)
        461         10         20  1.87848887E-03                  1_GWF-(1,202,354)  3.40656031E-02                    1_GWF-(1,2,131)
        462         10         21  6.09400561E-03                  1_GWF-(1,203,352) -3.21674905E-02                    1_GWF-(1,2,111)
        463         10         22  5.64512290E-03                    1_GWF-(3,1,109) -4.49784679E-02                  1_GWF-(1,192,372)
        464         10         23  1.51491356E-03                  1_GWF-(1,204,349) -9.14437080E-02                  1_GWF-(1,192,372)
        465         10         24  1.18488170E-03                  1_GWF-(1,205,348) -2.10596441E-02                  1_GWF-(1,192,372)
        466         10         25  1.01518473E-03                  1_GWF-(1,206,345) -4.58165537E-02                  1_GWF-(1,190,375)
        467         10         26  8.69395917E-04                  1_GWF-(1,207,344) -1.91219376E-02                    1_GWF-(1,11,34)
        468         11          1 -1.41123711E-03                     1_GWF-(1,7,66)      0.17377469                     1_GWF-(1,2,61)
        469         11          2 -9.29341102E-04                     1_GWF-(1,1,63)  5.62200537E-02                     1_GWF-(1,2,66)
        470         12          1 -3.50675947E-04                     1_GWF-(1,2,67)  3.51582560E-02                     1_GWF-(1,2,66)
        471         13          1 -9.52987226E-04                     1_GWF-(1,1,68) -3.78782610E-02                     1_GWF-(1,2,64)
        472         14          1  2.34026895E-04                     1_GWF-(1,1,66)  3.08420924E-02                  1_GWF-(1,122,211)
        473         15          1  4.15567327E-04                    1_GWF-(3,1,102)     -0.14458559                  1_GWF-(1,192,372)
        474         15          2  3.53095277E-03                    1_GWF-(3,1,103)     -0.25031345                  1_GWF-(1,192,372)
        475         15          3  5.47726810E-03                    1_GWF-(3,1,105)     -0.35876114                  1_GWF-(1,192,372)
        476         15          4  1.56539086E-03                    1_GWF-(3,1,110) -9.63891278E-02                  1_GWF-(1,192,372)
        477         15          5  9.13499885E-04                     1_GWF-(1,1,83)     -0.24322589                  1_GWF-(1,192,372)
        478         15          6  8.78030323E-04                  1_GWF-(3,219,252) -6.54729060E-02                  1_GWF-(1,192,372)
        479         16          1  1.86915087E-03                  1_GWF-(1,152,226) -5.14855705E-02                  1_GWF-(1,150,228)
        480         16          2 -1.09708666E-03                    1_GWF-(3,1,102)     -0.10777065                  1_GWF-(1,152,226)
        481         16          3 -1.92391109E-03                    1_GWF-(3,1,103)     -0.15180295                  1_GWF-(1,192,372)
        482         16          4 -1.77960594E-03                    1_GWF-(3,1,104) -8.24388814E-02                  1_GWF-(1,192,372)
        483         16          5 -9.31917912E-04                    1_GWF-(3,1,107)     -0.10018000                  1_GWF-(1,192,372)
        484         16          6 -5.20501460E-04                    1_GWF-(3,1,112) -8.07182059E-02                  1_GWF-(1,192,372)
        485         17          1  1.35578852E-03                  1_GWF-(1,152,226) -3.48415926E-02                  1_GWF-(1,150,228)
        486         17          2  9.73592815E-04                     1_GWF-(3,2,98)     -0.10789413                  1_GWF-(1,192,372)
        487         17          3  1.32384654E-03                     1_GWF-(3,2,99)     -0.11380012                  1_GWF-(1,192,372)
        488         17          4  7.07691544E-04                     1_GWF-(3,2,99) -7.54952049E-02                  1_GWF-(1,192,372)
        489         18          1  5.44226718E-04                  1_GWF-(1,152,226)  7.80178941E-02                  1_GWF-(1,153,225)
        490         19          1 -8.20915969E-04                     1_GWF-(3,2,95)     -0.15716525                  1_GWF-(1,153,225)
        491         19          2 -1.47554672E-03                     1_GWF-(3,2,95)     -0.10878438                  1_GWF-(1,192,372)
        492         19          3 -3.76182053E-04                     1_GWF-(3,2,96)     -0.11421865                  1_GWF-(1,192,372)
        493         19          4 -7.37751400E-04                     1_GWF-(3,2,98) -6.15047005E-02                  1_GWF-(1,192,372)
        494         20          1  7.09683722E-04                  1_GWF-(1,152,226)      0.11912030                  1_GWF-(1,153,225)
        495         20          2  1.82516162E-03                     1_GWF-(3,2,95) -9.34719935E-02                  1_GWF-(1,192,372)
        496         20          3  4.36386460E-04                     1_GWF-(3,2,96) -8.94436314E-02                  1_GWF-(1,192,372)
        497         21          1 -2.91438791E-04                     1_GWF-(3,2,93)      0.14349943                  1_GWF-(1,152,226)
        498         21          2 -9.62328694E-04                     1_GWF-(3,2,93)     -0.10225483                  1_GWF-(1,192,372)
        499         21          3 -2.79973217E-04                     1_GWF-(3,2,94)     -0.13437378                  1_GWF-(1,192,372)
        500         21          4 -4.35902749E-04                     1_GWF-(3,2,94) -6.49439340E-02                  1_GWF-(1,192,372)
        501         22          1  4.63906928E-04                  1_GWF-(1,152,226)  7.41888947E-02                  1_GWF-(1,153,225)
        502         23          1  5.17105482E-04                     1_GWF-(3,2,93)     -0.10074119                  1_GWF-(1,153,225)
        503         23          2  1.15534369E-03                     1_GWF-(3,2,93) -6.14696544E-02                  1_GWF-(1,192,372)
        504         23          3  1.84250670E-04                     1_GWF-(3,2,94)     -0.10070739                  1_GWF-(1,192,372)
        505         23          4  4.38326748E-04                  1_GWF-(1,190,375) -4.94352314E-02                  1_GWF-(1,192,372)
        506         24          1 -6.16254781E-04                     1_GWF-(3,2,94)      0.12776435                  1_GWF-(1,152,226)
        507         24          2 -1.22720058E-03                     1_GWF-(3,2,94) -7.64911593E-02                  1_GWF-(1,192,372)
        508         24          3 -1.79404632E-04                     1_GWF-(3,2,94) -6.66099125E-02                  1_GWF-(1,192,372)
        509         25          1  3.88602733E-04                  1_GWF-(1,152,226)  7.48802737E-02                  1_GWF-(1,152,226)
 --------------------------------------------------------------------------------------------------------------------------------------


 Solution Group 1 did not converge for stress period 1 and time step 1
 Simulation convergence failure. Simulation will terminate after output and deallocation.

 MEMORY MANAGER TOTAL STORAGE BY DATA TYPE, IN MEGABYTES
 -------------------------------
                    ALLOCATED   
 DATA TYPE           MEMORY     
 -------------------------------
 Character        2.6790250     
 Logical          4.40000000E-05
 Integer          47.637212     
 Real             103.91553     
 -------------------------------
 Total            154.23181     
 -------------------------------


 
 Run end date and time (yyyy/mm/dd hh:mm:ss): 2021/05/25 14:47:38
 Elapsed run time: 20.252 Seconds
 Simulation convergence failure occurred 1 time(s).

WARNING REPORT:

  1. NONLINEAR BLOCK VARIABLE 'OUTER_HCLOSE' IN FILE 'hagfors.ims' WAS
     DEPRECATED IN VERSION 6.1.1. SETTING OUTER_DVCLOSE TO OUTER_HCLOSE VALUE.
  2. LINEAR BLOCK VARIABLE 'INNER_HCLOSE' IN FILE 'hagfors.ims' WAS
     DEPRECATED IN VERSION 6.1.1. SETTING INNER_DVCLOSE TO INNER_HCLOSE VALUE.
 Premature termination of simulation.
