                                   MODFLOW 6
                U.S. GEOLOGICAL SURVEY MODULAR HYDROLOGIC MODEL
                            VERSION 6.2.1 02/18/2021

   MODFLOW 6 compiled Feb 18 2021 21:14:51 with IFORT compiler (ver. 19.10.3)

This software has been approved for release by the U.S. Geological 
Survey (USGS). Although the software has been subjected to rigorous 
review, the USGS reserves the right to update the software as needed 
pursuant to further analysis and review. No warranty, expressed or 
implied, is made by the USGS or the U.S. Government as to the 
functionality of the software and related material nor shall the 
fact of release constitute any such warranty. Furthermore, the 
software is released on condition that neither the USGS nor the U.S. 
Government shall be held liable for any damages resulting from its 
authorized or unauthorized use. Also refer to the USGS Water 
Resources Software User Rights Notice for complete use, copyright, 
and distribution information.


System command used to initiate simulation:
..\bins\win\mf6

MODFLOW was compiled using uniform precision.

Real Variables
  KIND: 8
  TINY (smallest non-zero value):    2.225074-308
  HUGE (largest value):    1.797693+308
  PRECISION: 15
  BIT SIZE: 64

Integer Variables
  KIND: 4
  HUGE (largest value): 2147483647
  BIT SIZE: 32

Long Integer Variables
  KIND: 8
  HUGE (largest value): 9223372036854775807
  BIT SIZE: 64

Logical Variables
  KIND: 4
  BIT SIZE: 32
 

 OPENED mfsim.nam
 FILE TYPE:NAM   UNIT 1001   STATUS:OLD                 
 FORMAT:FORMATTED              ACCESS:SEQUENTIAL          
 ACTION:READ                

 # File generated by Flopy version 3.3.5 on 12/09/2021 at 09:34:07.

 READING SIMULATION OPTIONS
 END OF SIMULATION OPTIONS

 READING SIMULATION TIMING

 OPENED hagfors_1.tdis
 FILE TYPE:TDIS   UNIT 1002   STATUS:OLD                 
 FORMAT:FORMATTED              ACCESS:SEQUENTIAL          
 ACTION:READ                


 TDIS -- TEMPORAL DISCRETIZATION PACKAGE,
 VERSION 1 : 11/13/2014 - INPUT READ FROM UNIT 1002
 # File generated by Flopy version 3.3.5 on 12/09/2021 at 09:34:07.
 PROCESSING TDIS OPTIONS
    SIMULATION TIME UNIT IS DAYS
    SIMULATION STARTING DATE AND TIME IS 2016-01-01                    
 END OF TDIS OPTIONS
 PROCESSING TDIS DIMENSIONS
    2 STRESS PERIOD(S) IN SIMULATION
 END OF TDIS DIMENSIONS
 PROCESSING TDIS PERIODDATA


 STRESS PERIOD     LENGTH       TIME STEPS     MULTIPLIER FOR DELT
 ----------------------------------------------------------------------------
        1         1.000000          1                    1.000
        2         1460.000         48                    1.000
 END OF TDIS PERIODDATA
 END OF SIMULATION TIMING

 READING SIMULATION MODELS
    GWF6 model HAGFORS_1 will be created as model 1
 END OF SIMULATION MODELS

 READING SIMULATION EXCHANGES
 END OF SIMULATION EXCHANGES

 READING SOLUTIONGROUP

 Creating solution: SLN_1           

 OPENED hagfors_1.ims
 FILE TYPE:IMS   UNIT 1014   STATUS:OLD                 
 FORMAT:FORMATTED              ACCESS:SEQUENTIAL          
 ACTION:READ                

 END OF SIMULATION SOLUTIONGROUP

 IMS -- ITERATIVE MODEL SOLUTION PACKAGE, VERSION 6, 4/28/2017
         INPUT READ FROM UNIT 1014
 # File generated by Flopy version 3.3.5 on 12/09/2021 at 09:34:07.

 PROCESSING IMS OPTIONS
 SIMPLE OPTION:
 DEFAULT SOLVER INPUT VALUES FOR FAST SOLUTIONS
 END OF IMS OPTIONS

 PROCESSING IMS NONLINEAR
 END OF IMS NONLINEAR DATA
 ***UNDER-RELAXATION WILL NOT BE USED***
 
 ***IMS LINEAR SOLVER WILL BE USED***

 IMSLINEAR -- UNSTRUCTURED LINEAR SOLUTION PACKAGE, VERSION 8, 04/28/2017

 PROCESSING LINEAR DATA
 END OF LINEAR DATA
 
 OUTER ITERATION CONVERGENCE CRITERION    (DVCLOSE) =    0.100000E-01
 MAXIMUM NUMBER OF OUTER ITERATIONS        (MXITER) = 750
 SOLVER PRINTOUT INDEX                     (IPRIMS) = 1
 NONLINEAR ITERATION METHOD            (NONLINMETH) = 0
 LINEAR SOLUTION METHOD                   (LINMETH) = 1

       SOLUTION BY THE BICONJUGATE-GRADIENT STABILIZED METHOD
 ------------------------------------------------------------------
 MAXIMUM OF 750 CALLS OF SOLUTION ROUTINE
 MAXIMUM OF 50 INTERNAL ITERATIONS PER CALL TO SOLUTION ROUTINE
 LINEAR ACCELERATION METHOD            = BCGS      
 MATRIX PRECONDITIONING TYPE           = INCOMPLETE LU       
 MATRIX SCALING APPROACH               = NO SCALING          
 MATRIX REORDERING APPROACH            = ORIGINAL ORDERING        
 NUMBER OF ORTHOGONALIZATIONS          = 0
 HEAD CHANGE CRITERION FOR CLOSURE     =    0.10000E-02
 RESIDUAL CHANGE CRITERION FOR CLOSURE =    0.10000E+00
 RESIDUAL CONVERGENCE OPTION           = 0
 RESIDUAL CONVERGENCE NORM             = INFINITY NORM   
 RELAXATION FACTOR                     =    0.00000E+00



1
                            STRESS PERIOD NO.    1, LENGTH =   1.000000    
                            -----------------------------------------------

                              NUMBER OF TIME STEPS =     1

                               MULTIPLIER FOR DELT =     1.000

                            INITIAL TIME STEP SIZE =   1.000000    



 PSEUDO-TRANSIENT CONTINUATION WILL BE APPLIED TO MODEL 1 ("HAGFORS_1") DURING THIS TIME STEP

 OUTER ITERATION SUMMARY
 ----------------------------------------------------------------------------------------------------------
                                OUTER      INNER                    STEP   MAXIMUM CHANGE MODEL-(CELLID) OR
 OUTER ITERATION STEP       ITERATION  ITERATION  MAXIMUM CHANGE SUCCESS             MODEL-PACKAGE-(NUMBER)
 ----------------------------------------------------------------------------------------------------------
 Model                              1         12      -2.7206320                               1_GWF-(1,34)
 Model                              2         16       3.2544530                              1_GWF-(1,913)
 Model                              3         17       1.8898886                              1_GWF-(1,998)
 Model                              4         18      0.99728562                             1_GWF-(1,2376)
 Model                              5         19      0.45081200                             1_GWF-(1,1840)
 Model                              6         15      0.17660358                             1_GWF-(1,2954)
 Model                              7         13      0.17067483                             1_GWF-(1,2898)
 Model                              8          7  9.71410565E-02                             1_GWF-(1,2895)
 Model                              9          6  7.26100734E-02                             1_GWF-(1,2895)
 Model                             10          5  7.99048334E-02                             1_GWF-(1,2831)
 Model                             11          2  2.84992127E-03       *                     1_GWF-(1,2831)
 Package                           11                 -231.80434                     1_GWF-SFR-(206)-inflow
 Model                             12          2  3.23644752E-03       *                     1_GWF-(1,2831)
 Package                           12                 -149.59984                     1_GWF-SFR-(206)-inflow
 Model                             13          2  2.08232857E-03       *                     1_GWF-(1,2831)
 Package                           13                 -88.367349                     1_GWF-SFR-(206)-inflow
 Model                             14          1 -7.15308225E-04       *                     1_GWF-(1,2831)
 Package                           14                 -57.137091                     1_GWF-SFR-(206)-inflow
 Model                             15          1  1.30194198E-04       *                     1_GWF-(3,2614)
 Package                           15                 -24.121375                     1_GWF-SFR-(206)-inflow
 Model                             16          1  1.49734023E-04       *                     1_GWF-(3,2528)
 Package                           16                 -16.587068                     1_GWF-SFR-(206)-inflow
 Model                             17          1  1.48867615E-04       *                     1_GWF-(3,2043)
 Package                           17                 -13.623314                     1_GWF-SFR-(206)-inflow
 Model                             18          1  1.50728042E-04       *                     1_GWF-(3,1973)
 Package                           18                 -11.188831                     1_GWF-SFR-(206)-inflow
 Model                             19          1  1.42270910E-04       *                     1_GWF-(3,1899)
 Package                           19                 -9.9793966                     1_GWF-SFR-(206)-inflow
 Model                             20          1  1.44554210E-04       *                     1_GWF-(3,1827)
 Package                           20                 -8.4513518                     1_GWF-SFR-(206)-inflow
 Model                             21          1  1.34987802E-04       *                     1_GWF-(1,1737)
 Package                           21                 -7.6391590                     1_GWF-SFR-(206)-inflow
 Model                             22          1  1.37339153E-04       *                     1_GWF-(1,1737)
 Package                           22                 -6.5117004                     1_GWF-SFR-(206)-inflow
 Model                             23          1  1.25463259E-04       *                     1_GWF-(1,1624)
 Package                           23                 -5.9573765                     1_GWF-SFR-(206)-inflow
 Model                             24          1  1.27713185E-04       *                     1_GWF-(1,1624)
 Package                           24                 -5.0555801                     1_GWF-SFR-(206)-inflow
 Model                             25          1  1.12617110E-04       *                     1_GWF-(1,1625)
 Package                           25                 -4.6957672                     1_GWF-SFR-(206)-inflow
 Model                             26          1  1.16379137E-04       *                     1_GWF-(1,1519)
 Package                           26                 -3.9258426                     1_GWF-SFR-(206)-inflow
 Model                             27          1  9.76086755E-05       *                     1_GWF-(1,1519)
 Package                           27                 -3.7341305                     1_GWF-SFR-(206)-inflow
 Model                             28          1  1.04502067E-04       *                     1_GWF-(1,1519)
 Package                           28                 -3.0295948                     1_GWF-SFR-(206)-inflow
 Model                             29          1  8.11210732E-05       *                     1_GWF-(1,1628)
 Package                           29                 -3.0052698                     1_GWF-SFR-(206)-inflow
 Model                             30          1  9.40967855E-05       *                     1_GWF-(1,1628)
 Package                           30                 -2.3021388                     1_GWF-SFR-(206)-inflow
 Model                             31          1  6.35981042E-05       *                     1_GWF-(1,1628)
 Package                           31                 -2.4721672                     1_GWF-SFR-(206)-inflow
 Model                             32          1  8.61997340E-05       *                     1_GWF-(1,1629)
 Package                           32                 -1.6890198                     1_GWF-SFR-(206)-inflow
 Model                             33          1  4.51406274E-05       *                     1_GWF-(1,1629)
 Package                           33                 -2.1162491                     1_GWF-SFR-(206)-inflow
 Model                             34          1  8.10574019E-05       *                     1_GWF-(1,1629)
 Package                           34                 -1.1435992                     1_GWF-SFR-(206)-inflow
 Model                             35          1  2.77768993E-05       *                     1_GWF-(1,1629)
 Package                           35                 -1.8993490                     1_GWF-SFR-(206)-inflow
 Model                             36          1  7.76259782E-05       *                     1_GWF-(1,1629)
 Package                           36                -0.68645722                     1_GWF-SFR-(206)-inflow
 Model                             37          1  1.68655782E-05       *                     1_GWF-(1,1629)
 Package                           37                 -1.7441268                     1_GWF-SFR-(206)-inflow
 Model                             38          1  7.80867386E-05       *                     1_GWF-(1,1629)
 Package                           38                -0.42870839                     1_GWF-SFR-(206)-inflow
 Model                             39          1  1.09361840E-05       *                     1_GWF-(1,1525)
 Package                           39                 -1.6755024                     1_GWF-SFR-(206)-inflow
 Model                             40          1  7.11407351E-05       *                     1_GWF-(1,1629)
 Package                           40                -0.29969324                     1_GWF-SFR-(206)-inflow
 Model                             41          1  7.32141928E-06       *                     1_GWF-(1,1525)
 Package                           41                 -1.4638389                     1_GWF-SFR-(206)-inflow
 Model                             42          1  5.53854651E-05       *                     1_GWF-(1,1629)
 Package                           42                -0.22363738                     1_GWF-SFR-(206)-inflow
 Model                             43          1  5.05162811E-06       *                     1_GWF-(1,1525)
 Package                           43                 -1.0798836                     1_GWF-SFR-(206)-inflow
 Model                             44          1  3.88462342E-05       *                     1_GWF-(1,1629)
 Package                           44                -0.18333589                     1_GWF-SFR-(206)-inflow
 Model                             45          1  3.63488212E-06       *                     1_GWF-(1,1629)
 Package                           45                -0.73020711                     1_GWF-SFR-(206)-inflow
 Model                             46          1  2.78688529E-05       *                     1_GWF-(1,1629)
 Package                           46                -0.13822249                     1_GWF-SFR-(206)-inflow
 Model                             47          1  2.56270883E-06       *                     1_GWF-(1,1525)
 Package                           47                -0.51838980                     1_GWF-SFR-(206)-inflow
 Model                             48          1  2.03360042E-05       *                     1_GWF-(1,1629)
 Package                           48            -9.63131832E-02                     1_GWF-SFR-(206)-inflow
 Model                             49          1  1.77081850E-06       *                     1_GWF-(1,1629)
 Package                           49                -0.37437117                     1_GWF-SFR-(206)-inflow
 Model                             50          1  1.43832600E-05       *                     1_GWF-(1,1629)
 Package                           50            -6.67173129E-02                     1_GWF-SFR-(206)-inflow
 Model                             51          1  1.24536635E-06       *                     1_GWF-(1,1525)
 Package                           51                -0.26282157                     1_GWF-SFR-(206)-inflow
 Model                             52          1  1.01737168E-05       *                     1_GWF-(1,1629)
 Package                           52            -4.69903812E-02                     1_GWF-SFR-(206)-inflow
 Model                             53          1  8.73110793E-07       *                     1_GWF-(1,1629)
 Package                           53                -0.18497089                     1_GWF-SFR-(206)-inflow
 Model                             54          1  7.34691622E-06       *                     1_GWF-(1,1629)
 Package                           54            -3.21045436E-02                     1_GWF-SFR-(206)-inflow
 Model                             55          1  6.05700592E-07       *                     1_GWF-(1,1528)
 Package                           55                -0.13211748                     1_GWF-SFR-(206)-inflow
 Model                             56          1  5.01758345E-06       *                     1_GWF-(1,1525)
 Package                           56            -2.35528976E-02                     1_GWF-SFR-(206)-inflow
 Model                             57          1  4.29758131E-07       *                     1_GWF-(1,1518)
 Package                           57            -9.05909638E-02                     1_GWF-SFR-(206)-inflow
 Model                             58          1  3.70967740E-06       *                     1_GWF-(1,1629)
 Package                           58            -1.47285486E-02                     1_GWF-SFR-(206)-inflow
 Model                             59          1  3.30246678E-07       *                      1_GWF-(3,116)
 Package                           59            -6.55631994E-02                     1_GWF-SFR-(206)-inflow
 Model                             60          1  2.18457927E-06       *                     1_GWF-(1,1528)
 Package                           60            -1.26798116E-02                     1_GWF-SFR-(206)-inflow
 Model                             61          1  2.57519247E-07       *                     1_GWF-(1,1516)
 Package                           61            -4.01061326E-02                     1_GWF-SFR-(206)-inflow
 Model                             62          1  1.74332524E-06       *                     1_GWF-(1,1517)
 Package                           62            -5.41512256E-03       *             1_GWF-SFR-(206)-inflow
 ----------------------------------------------------------------------------------------------------------


 62 CALLS TO NUMERICAL SOLUTION IN TIME STEP 1 STRESS PERIOD 1
 183 TOTAL ITERATIONS
1
                            STRESS PERIOD NO.    2, LENGTH =   1460.000    
                            -----------------------------------------------

                              NUMBER OF TIME STEPS =    48

                               MULTIPLIER FOR DELT =     1.000

                            INITIAL TIME STEP SIZE =   30.41667    

 OUTER ITERATION SUMMARY
 ----------------------------------------------------------------------------------------------------------
                                OUTER      INNER                    STEP   MAXIMUM CHANGE MODEL-(CELLID) OR
 OUTER ITERATION STEP       ITERATION  ITERATION  MAXIMUM CHANGE SUCCESS             MODEL-PACKAGE-(NUMBER)
 ----------------------------------------------------------------------------------------------------------
 Model                              1          1  2.65141495E-07       *                       1_GWF-(3,47)
 Package                            1                 -1685081.9                     1_GWF-SFR-(206)-inflow
 Model                              2          1  8.38918282E-07       *                     1_GWF-(3,1526)
 Package                            2                -0.22894670                     1_GWF-SFR-(206)-inflow
 Model                              3          1  2.14094598E-07       *                     1_GWF-(3,1330)
 Package                            3                -0.44355076                     1_GWF-SFR-(206)-inflow
 Model                              4          1  7.42240417E-07       *                     1_GWF-(2,1524)
 Package                            4            -6.99028846E-02                     1_GWF-SFR-(206)-inflow
 Model                              5          1  1.06382060E-07       *                     1_GWF-(3,1528)
 Package                            5                -0.50434980                     1_GWF-SFR-(206)-inflow
 Model                              6          1  8.69961212E-07       *                     1_GWF-(3,1528)
 Package                            6            -5.48123887E-02                     1_GWF-SFR-(206)-inflow
 Model                              7          1  6.80128949E-08       *                     1_GWF-(3,1415)
 Package                            7                -0.39011042                     1_GWF-SFR-(206)-inflow
 Model                              8          1  2.41713366E-07       *                     1_GWF-(2,1421)
 Package                            8            -7.43335713E-02                     1_GWF-SFR-(206)-inflow
 Model                              9          1  7.53620668E-08       *                     1_GWF-(3,1528)
 Package                            9                -0.17591266                     1_GWF-SFR-(206)-inflow
 Model                             10          1  3.40768253E-07       *                     1_GWF-(3,1528)
 Package                           10            -5.47621618E-02                     1_GWF-SFR-(206)-inflow
 Model                             11          1  4.22439541E-08       *                     1_GWF-(2,1421)
 Package                           11                -0.16212983                     1_GWF-SFR-(206)-inflow
 Model                             12          1  1.67510819E-07       *                     1_GWF-(2,1518)
 Package                           12            -3.38097508E-02                     1_GWF-SFR-(206)-inflow
 Model                             13          1  3.46444153E-08       *                     1_GWF-(3,1528)
 Package                           13                -0.11356611                     1_GWF-SFR-(206)-inflow
 Model                             14          1  2.07946954E-07       *                     1_GWF-(3,1528)
 Package                           14            -1.99923235E-02                     1_GWF-SFR-(206)-inflow
 Model                             15          1  1.86369675E-08       *                     1_GWF-(2,1421)
 Package                           15                -0.10587190                     1_GWF-SFR-(206)-inflow
 Model                             16          1  9.91104514E-08       *                     1_GWF-(2,1517)
 Package                           16            -1.29998650E-02                     1_GWF-SFR-(206)-inflow
 Model                             17          1  1.78383743E-08       *                     1_GWF-(3,1527)
 Package                           17            -6.09954703E-02                     1_GWF-SFR-(206)-inflow
 Model                             18          1  9.43688860E-08       *                     1_GWF-(3,1527)
 Package                           18            -1.46327047E-02                     1_GWF-SFR-(206)-inflow
 Model                             19          1  1.39200154E-08       *                     1_GWF-(3,1513)
 Package                           19            -4.38527766E-02                     1_GWF-SFR-(206)-inflow
 Model                             20          1  4.08682297E-08       *                     1_GWF-(1,1517)
 Package                           20            -7.35955607E-03       *             1_GWF-SFR-(206)-inflow
 ----------------------------------------------------------------------------------------------------------


 20 CALLS TO NUMERICAL SOLUTION IN TIME STEP 1 STRESS PERIOD 2
 20 TOTAL ITERATIONS

 OUTER ITERATION SUMMARY
 ----------------------------------------------------------------------------------------------------------
                                OUTER      INNER                    STEP   MAXIMUM CHANGE MODEL-(CELLID) OR
 OUTER ITERATION STEP       ITERATION  ITERATION  MAXIMUM CHANGE SUCCESS             MODEL-PACKAGE-(NUMBER)
 ----------------------------------------------------------------------------------------------------------
 Model                              1          1  4.81220184E-08       *                     1_GWF-(1,1839)
 Package                            1                 -1685084.5                     1_GWF-SFR-(206)-inflow
 Model                              2          1  5.76617083E-08       *                     1_GWF-(2,1421)
 Package                            2            -8.62162829E-03       *             1_GWF-SFR-(206)-inflow
 ----------------------------------------------------------------------------------------------------------


 2 CALLS TO NUMERICAL SOLUTION IN TIME STEP 2 STRESS PERIOD 2
 2 TOTAL ITERATIONS

 OUTER ITERATION SUMMARY
 ----------------------------------------------------------------------------------------------------------
                                OUTER      INNER                    STEP   MAXIMUM CHANGE MODEL-(CELLID) OR
 OUTER ITERATION STEP       ITERATION  ITERATION  MAXIMUM CHANGE SUCCESS             MODEL-PACKAGE-(NUMBER)
 ----------------------------------------------------------------------------------------------------------
 Model                              1          1  8.29487874E-08       *                     1_GWF-(1,1751)
 Package                            1                 -1685084.6                     1_GWF-SFR-(206)-inflow
 Model                              2          1  2.79933943E-08       *                     1_GWF-(2,1421)
 Package                            2            -3.24455879E-02                     1_GWF-SFR-(206)-inflow
 Model                              3          1  9.63179616E-08       *                     1_GWF-(1,1421)
 Package                            3            -1.36833478E-02                     1_GWF-SFR-(206)-inflow
 Model                              4          1  1.73395165E-08       *                      1_GWF-(3,116)
 Package                            4            -3.49743148E-02                     1_GWF-SFR-(206)-inflow
 Model                              5          1  9.57421946E-08       *                     1_GWF-(2,1526)
 Package                            5            -1.27577602E-02                     1_GWF-SFR-(206)-inflow
 Model                              6          1  8.80652351E-09       *                     1_GWF-(1,1528)
 Package                            6            -4.44021750E-02                     1_GWF-SFR-(206)-inflow
 Model                              7          1  4.66312713E-08       *                     1_GWF-(3,1525)
 Package                            7            -9.10804775E-03       *             1_GWF-SFR-(206)-inflow
 ----------------------------------------------------------------------------------------------------------


 7 CALLS TO NUMERICAL SOLUTION IN TIME STEP 3 STRESS PERIOD 2
 7 TOTAL ITERATIONS

 OUTER ITERATION SUMMARY
 ----------------------------------------------------------------------------------------------------------
                                OUTER      INNER                    STEP   MAXIMUM CHANGE MODEL-(CELLID) OR
 OUTER ITERATION STEP       ITERATION  ITERATION  MAXIMUM CHANGE SUCCESS             MODEL-PACKAGE-(NUMBER)
 ----------------------------------------------------------------------------------------------------------
 Model                              1          1  8.76568151E-09       *                     1_GWF-(1,1625)
 Package                            1                 -1685084.7                     1_GWF-SFR-(206)-inflow
 Model                              2          1  3.93814048E-08       *                     1_GWF-(1,1528)
 Package                            2            -5.81700871E-03       *             1_GWF-SFR-(206)-inflow
 ----------------------------------------------------------------------------------------------------------


 2 CALLS TO NUMERICAL SOLUTION IN TIME STEP 4 STRESS PERIOD 2
 2 TOTAL ITERATIONS

 OUTER ITERATION SUMMARY
 ----------------------------------------------------------------------------------------------------------
                                OUTER      INNER                    STEP   MAXIMUM CHANGE MODEL-(CELLID) OR
 OUTER ITERATION STEP       ITERATION  ITERATION  MAXIMUM CHANGE SUCCESS             MODEL-PACKAGE-(NUMBER)
 ----------------------------------------------------------------------------------------------------------
 Model                              1          1  7.16519821E-09       *                     1_GWF-(3,1629)
 Package                            1                 -1685084.8                     1_GWF-SFR-(206)-inflow
 Model                              2          1  2.89774391E-08       *                     1_GWF-(3,1525)
 Package                            2            -3.99779215E-03       *             1_GWF-SFR-(206)-inflow
 ----------------------------------------------------------------------------------------------------------


 2 CALLS TO NUMERICAL SOLUTION IN TIME STEP 5 STRESS PERIOD 2
 2 TOTAL ITERATIONS

 OUTER ITERATION SUMMARY
 ----------------------------------------------------------------------------------------------------------
                                OUTER      INNER                    STEP   MAXIMUM CHANGE MODEL-(CELLID) OR
 OUTER ITERATION STEP       ITERATION  ITERATION  MAXIMUM CHANGE SUCCESS             MODEL-PACKAGE-(NUMBER)
 ----------------------------------------------------------------------------------------------------------
 Model                              1          1  6.33053787E-09       *                     1_GWF-(1,1639)
 Package                            1                 -1685084.8                     1_GWF-SFR-(206)-inflow
 Model                              2          1  1.43562886E-08       *                     1_GWF-(1,1528)
 Package                            2            -2.78183528E-03       *             1_GWF-SFR-(206)-inflow
 ----------------------------------------------------------------------------------------------------------


 2 CALLS TO NUMERICAL SOLUTION IN TIME STEP 6 STRESS PERIOD 2
 2 TOTAL ITERATIONS

 OUTER ITERATION SUMMARY
 ----------------------------------------------------------------------------------------------------------
                                OUTER      INNER                    STEP   MAXIMUM CHANGE MODEL-(CELLID) OR
 OUTER ITERATION STEP       ITERATION  ITERATION  MAXIMUM CHANGE SUCCESS             MODEL-PACKAGE-(NUMBER)
 ----------------------------------------------------------------------------------------------------------
 Model                              1          1  7.37841788E-09       *                     1_GWF-(1,1437)
 Package                            1                 -1685084.8                     1_GWF-SFR-(206)-inflow
 Model                              2          1  7.40246264E-09       *                     1_GWF-(1,1528)
 Package                            2            -2.60859411E-03       *             1_GWF-SFR-(206)-inflow
 ----------------------------------------------------------------------------------------------------------


 2 CALLS TO NUMERICAL SOLUTION IN TIME STEP 7 STRESS PERIOD 2
 2 TOTAL ITERATIONS

 OUTER ITERATION SUMMARY
 ----------------------------------------------------------------------------------------------------------
                                OUTER      INNER                    STEP   MAXIMUM CHANGE MODEL-(CELLID) OR
 OUTER ITERATION STEP       ITERATION  ITERATION  MAXIMUM CHANGE SUCCESS             MODEL-PACKAGE-(NUMBER)
 ----------------------------------------------------------------------------------------------------------
 Model                              1          1  1.01276214E-08       *                     1_GWF-(1,1437)
 Package                            1                 -1685084.8                     1_GWF-SFR-(206)-inflow
 Model                              2          1  3.95220923E-09       *                     1_GWF-(1,1528)
 Package                            2            -3.33701726E-03       *             1_GWF-SFR-(206)-inflow
 ----------------------------------------------------------------------------------------------------------


 2 CALLS TO NUMERICAL SOLUTION IN TIME STEP 8 STRESS PERIOD 2
 2 TOTAL ITERATIONS

 OUTER ITERATION SUMMARY
 ----------------------------------------------------------------------------------------------------------
                                OUTER      INNER                    STEP   MAXIMUM CHANGE MODEL-(CELLID) OR
 OUTER ITERATION STEP       ITERATION  ITERATION  MAXIMUM CHANGE SUCCESS             MODEL-PACKAGE-(NUMBER)
 ----------------------------------------------------------------------------------------------------------
 Model                              1          1  1.78461903E-08       *                     1_GWF-(1,1741)
 Package                            1                 -1685084.8                     1_GWF-SFR-(206)-inflow
 Model                              2          1  2.60141064E-09       *                      1_GWF-(3,116)
 Package                            2            -7.10309686E-03       *             1_GWF-SFR-(206)-inflow
 ----------------------------------------------------------------------------------------------------------


 2 CALLS TO NUMERICAL SOLUTION IN TIME STEP 9 STRESS PERIOD 2
 2 TOTAL ITERATIONS

 OUTER ITERATION SUMMARY
 ----------------------------------------------------------------------------------------------------------
                                OUTER      INNER                    STEP   MAXIMUM CHANGE MODEL-(CELLID) OR
 OUTER ITERATION STEP       ITERATION  ITERATION  MAXIMUM CHANGE SUCCESS             MODEL-PACKAGE-(NUMBER)
 ----------------------------------------------------------------------------------------------------------
 Model                              1          1  8.89303919E-09       *                     1_GWF-(1,1525)
 Package                            1                 -1685084.8                     1_GWF-SFR-(206)-inflow
 Model                              2          1  1.62674496E-09       *                     1_GWF-(1,1517)
 Package                            2            -4.96880270E-03       *             1_GWF-SFR-(206)-inflow
 ----------------------------------------------------------------------------------------------------------


 2 CALLS TO NUMERICAL SOLUTION IN TIME STEP 10 STRESS PERIOD 2
 2 TOTAL ITERATIONS

 OUTER ITERATION SUMMARY
 ----------------------------------------------------------------------------------------------------------
                                OUTER      INNER                    STEP   MAXIMUM CHANGE MODEL-(CELLID) OR
 OUTER ITERATION STEP       ITERATION  ITERATION  MAXIMUM CHANGE SUCCESS             MODEL-PACKAGE-(NUMBER)
 ----------------------------------------------------------------------------------------------------------
 Model                              1          1  1.31577167E-08       *                     1_GWF-(1,1629)
 Package                            1                 -1685084.8                     1_GWF-SFR-(206)-inflow
 Model                              2          1  1.38123823E-09       *                      1_GWF-(3,116)
 Package                            2            -6.86001942E-03       *             1_GWF-SFR-(206)-inflow
 ----------------------------------------------------------------------------------------------------------


 2 CALLS TO NUMERICAL SOLUTION IN TIME STEP 11 STRESS PERIOD 2
 2 TOTAL ITERATIONS

 OUTER ITERATION SUMMARY
 ----------------------------------------------------------------------------------------------------------
                                OUTER      INNER                    STEP   MAXIMUM CHANGE MODEL-(CELLID) OR
 OUTER ITERATION STEP       ITERATION  ITERATION  MAXIMUM CHANGE SUCCESS             MODEL-PACKAGE-(NUMBER)
 ----------------------------------------------------------------------------------------------------------
 Model                              1          1  6.61557920E-09       *                     1_GWF-(2,1525)
 Package                            1                 -1685084.8                     1_GWF-SFR-(206)-inflow
 Model                              2          1  6.23344931E-10       *                      1_GWF-(3,116)
 Package                            2            -3.16262884E-03       *             1_GWF-SFR-(206)-inflow
 ----------------------------------------------------------------------------------------------------------


 2 CALLS TO NUMERICAL SOLUTION IN TIME STEP 12 STRESS PERIOD 2
 2 TOTAL ITERATIONS

 OUTER ITERATION SUMMARY
 ----------------------------------------------------------------------------------------------------------
                                OUTER      INNER                    STEP   MAXIMUM CHANGE MODEL-(CELLID) OR
 OUTER ITERATION STEP       ITERATION  ITERATION  MAXIMUM CHANGE SUCCESS             MODEL-PACKAGE-(NUMBER)
 ----------------------------------------------------------------------------------------------------------
 Model                              1          1  4.49418280E-09       *                     1_GWF-(1,1629)
 Package                            1                 -1685084.8                     1_GWF-SFR-(206)-inflow
 Model                              2          1  4.66798156E-10       *                      1_GWF-(3,116)
 Package                            2            -2.47767104E-03       *             1_GWF-SFR-(206)-inflow
 ----------------------------------------------------------------------------------------------------------


 2 CALLS TO NUMERICAL SOLUTION IN TIME STEP 13 STRESS PERIOD 2
 2 TOTAL ITERATIONS

 OUTER ITERATION SUMMARY
 ----------------------------------------------------------------------------------------------------------
                                OUTER      INNER                    STEP   MAXIMUM CHANGE MODEL-(CELLID) OR
 OUTER ITERATION STEP       ITERATION  ITERATION  MAXIMUM CHANGE SUCCESS             MODEL-PACKAGE-(NUMBER)
 ----------------------------------------------------------------------------------------------------------
 Model                              1          1  3.93572464E-09       *                     1_GWF-(2,1528)
 Package                            1                 -1685084.8                     1_GWF-SFR-(206)-inflow
 Model                              2          1  3.64707375E-10       *                      1_GWF-(3,116)
 Package                            2            -1.70399506E-03       *             1_GWF-SFR-(206)-inflow
 ----------------------------------------------------------------------------------------------------------


 2 CALLS TO NUMERICAL SOLUTION IN TIME STEP 14 STRESS PERIOD 2
 2 TOTAL ITERATIONS

 OUTER ITERATION SUMMARY
 ----------------------------------------------------------------------------------------------------------
                                OUTER      INNER                    STEP   MAXIMUM CHANGE MODEL-(CELLID) OR
 OUTER ITERATION STEP       ITERATION  ITERATION  MAXIMUM CHANGE SUCCESS             MODEL-PACKAGE-(NUMBER)
 ----------------------------------------------------------------------------------------------------------
 Model                              1          1  1.96740757E-09       *                     1_GWF-(3,1525)
 Package                            1                 -1685084.8                     1_GWF-SFR-(206)-inflow
 Model                              2          1  3.31965566E-10       *                     1_GWF-(2,1527)
 Package                            2            -1.17591491E-03       *             1_GWF-SFR-(206)-inflow
 ----------------------------------------------------------------------------------------------------------


 2 CALLS TO NUMERICAL SOLUTION IN TIME STEP 15 STRESS PERIOD 2
 2 TOTAL ITERATIONS

 OUTER ITERATION SUMMARY
 ----------------------------------------------------------------------------------------------------------
                                OUTER      INNER                    STEP   MAXIMUM CHANGE MODEL-(CELLID) OR
 OUTER ITERATION STEP       ITERATION  ITERATION  MAXIMUM CHANGE SUCCESS             MODEL-PACKAGE-(NUMBER)
 ----------------------------------------------------------------------------------------------------------
 Model                              1          1  1.97834993E-09       *                     1_GWF-(2,1527)
 Package                            1                 -1685084.8                     1_GWF-SFR-(206)-inflow
 Model                              2          1  3.15196758E-10       *                     1_GWF-(3,1526)
 Package                            2            -6.90495096E-04       *             1_GWF-SFR-(206)-inflow
 ----------------------------------------------------------------------------------------------------------


 2 CALLS TO NUMERICAL SOLUTION IN TIME STEP 16 STRESS PERIOD 2
 2 TOTAL ITERATIONS

 OUTER ITERATION SUMMARY
 ----------------------------------------------------------------------------------------------------------
                                OUTER      INNER                    STEP   MAXIMUM CHANGE MODEL-(CELLID) OR
 OUTER ITERATION STEP       ITERATION  ITERATION  MAXIMUM CHANGE SUCCESS             MODEL-PACKAGE-(NUMBER)
 ----------------------------------------------------------------------------------------------------------
 Model                              1          1  8.49837534E-10       *                     1_GWF-(3,1525)
 Package                            1                 -1685084.8                     1_GWF-SFR-(206)-inflow
 Model                              2          1  1.77976744E-10       *                     1_GWF-(3,2351)
 Package                            2            -5.48047288E-04       *             1_GWF-SFR-(206)-inflow
 ----------------------------------------------------------------------------------------------------------


 2 CALLS TO NUMERICAL SOLUTION IN TIME STEP 17 STRESS PERIOD 2
 2 TOTAL ITERATIONS

 OUTER ITERATION SUMMARY
 ----------------------------------------------------------------------------------------------------------
                                OUTER      INNER                    STEP   MAXIMUM CHANGE MODEL-(CELLID) OR
 OUTER ITERATION STEP       ITERATION  ITERATION  MAXIMUM CHANGE SUCCESS             MODEL-PACKAGE-(NUMBER)
 ----------------------------------------------------------------------------------------------------------
 Model                              1          1  1.28358124E-09       *                     1_GWF-(2,1526)
 Package                            1                 -1685084.8                     1_GWF-SFR-(206)-inflow
 Model                              2          1  1.78630444E-10       *                     1_GWF-(3,1526)
 Package                            2            -4.63591296E-04       *             1_GWF-SFR-(206)-inflow
 ----------------------------------------------------------------------------------------------------------


 2 CALLS TO NUMERICAL SOLUTION IN TIME STEP 18 STRESS PERIOD 2
 2 TOTAL ITERATIONS

 OUTER ITERATION SUMMARY
 ----------------------------------------------------------------------------------------------------------
                                OUTER      INNER                    STEP   MAXIMUM CHANGE MODEL-(CELLID) OR
 OUTER ITERATION STEP       ITERATION  ITERATION  MAXIMUM CHANGE SUCCESS             MODEL-PACKAGE-(NUMBER)
 ----------------------------------------------------------------------------------------------------------
 Model                              1          1  3.67322173E-10       *                     1_GWF-(3,1525)
 Package                            1                 -1685084.8                     1_GWF-SFR-(206)-inflow
 Model                              2          1  1.13118404E-10       *                     1_GWF-(3,2351)
 Package                            2            -2.38053891E-04       *             1_GWF-SFR-(206)-inflow
 ----------------------------------------------------------------------------------------------------------


 2 CALLS TO NUMERICAL SOLUTION IN TIME STEP 19 STRESS PERIOD 2
 2 TOTAL ITERATIONS

 OUTER ITERATION SUMMARY
 ----------------------------------------------------------------------------------------------------------
                                OUTER      INNER                    STEP   MAXIMUM CHANGE MODEL-(CELLID) OR
 OUTER ITERATION STEP       ITERATION  ITERATION  MAXIMUM CHANGE SUCCESS             MODEL-PACKAGE-(NUMBER)
 ----------------------------------------------------------------------------------------------------------
 Model                              1          1  6.38380016E-10       *                     1_GWF-(2,1526)
 Package                            1                 -1685084.8                     1_GWF-SFR-(206)-inflow
 Model                              2          1  7.76196885E-11       *                     1_GWF-(3,1528)
 Package                            2            -2.71782975E-04       *             1_GWF-SFR-(206)-inflow
 ----------------------------------------------------------------------------------------------------------


 2 CALLS TO NUMERICAL SOLUTION IN TIME STEP 20 STRESS PERIOD 2
 2 TOTAL ITERATIONS

 OUTER ITERATION SUMMARY
 ----------------------------------------------------------------------------------------------------------
                                OUTER      INNER                    STEP   MAXIMUM CHANGE MODEL-(CELLID) OR
 OUTER ITERATION STEP       ITERATION  ITERATION  MAXIMUM CHANGE SUCCESS             MODEL-PACKAGE-(NUMBER)
 ----------------------------------------------------------------------------------------------------------
 Model                              1          1  2.70972578E-10       *                     1_GWF-(3,1525)
 Package                            1                 -1685084.8                     1_GWF-SFR-(206)-inflow
 Model                              2          1  6.63931132E-11       *                     1_GWF-(3,2351)
 Package                            2            -1.42953858E-04       *             1_GWF-SFR-(206)-inflow
 ----------------------------------------------------------------------------------------------------------


 2 CALLS TO NUMERICAL SOLUTION IN TIME STEP 21 STRESS PERIOD 2
 2 TOTAL ITERATIONS

 OUTER ITERATION SUMMARY
 ----------------------------------------------------------------------------------------------------------
                                OUTER      INNER                    STEP   MAXIMUM CHANGE MODEL-(CELLID) OR
 OUTER ITERATION STEP       ITERATION  ITERATION  MAXIMUM CHANGE SUCCESS             MODEL-PACKAGE-(NUMBER)
 ----------------------------------------------------------------------------------------------------------
 Model                              1          1  2.75036882E-10       *                     1_GWF-(1,1526)
 Package                            1                 -1685084.8                     1_GWF-SFR-(206)-inflow
 Model                              2          1  5.44275736E-11       *                     1_GWF-(3,1525)
 Package                            2            -1.10863853E-04       *             1_GWF-SFR-(206)-inflow
 ----------------------------------------------------------------------------------------------------------


 2 CALLS TO NUMERICAL SOLUTION IN TIME STEP 22 STRESS PERIOD 2
 2 TOTAL ITERATIONS

 OUTER ITERATION SUMMARY
 ----------------------------------------------------------------------------------------------------------
                                OUTER      INNER                    STEP   MAXIMUM CHANGE MODEL-(CELLID) OR
 OUTER ITERATION STEP       ITERATION  ITERATION  MAXIMUM CHANGE SUCCESS             MODEL-PACKAGE-(NUMBER)
 ----------------------------------------------------------------------------------------------------------
 Model                              1          1  1.35202072E-10       *                     1_GWF-(3,1629)
 Package                            1                 -1685084.8                     1_GWF-SFR-(206)-inflow
 Model                              2          1  3.70903308E-11       *                     1_GWF-(1,1527)
 Package                            2            -6.98716381E-05       *             1_GWF-SFR-(206)-inflow
 ----------------------------------------------------------------------------------------------------------


 2 CALLS TO NUMERICAL SOLUTION IN TIME STEP 23 STRESS PERIOD 2
 2 TOTAL ITERATIONS

 OUTER ITERATION SUMMARY
 ----------------------------------------------------------------------------------------------------------
                                OUTER      INNER                    STEP   MAXIMUM CHANGE MODEL-(CELLID) OR
 OUTER ITERATION STEP       ITERATION  ITERATION  MAXIMUM CHANGE SUCCESS             MODEL-PACKAGE-(NUMBER)
 ----------------------------------------------------------------------------------------------------------
 Model                              1          1  1.05870868E-10       *                     1_GWF-(2,1526)
 Package                            1                 -1685084.8                     1_GWF-SFR-(206)-inflow
 Model                              2          1  3.19175797E-11       *                     1_GWF-(3,1525)
 Package                            2            -4.86533081E-05       *             1_GWF-SFR-(206)-inflow
 ----------------------------------------------------------------------------------------------------------


 2 CALLS TO NUMERICAL SOLUTION IN TIME STEP 24 STRESS PERIOD 2
 2 TOTAL ITERATIONS

 OUTER ITERATION SUMMARY
 ----------------------------------------------------------------------------------------------------------
                                OUTER      INNER                    STEP   MAXIMUM CHANGE MODEL-(CELLID) OR
 OUTER ITERATION STEP       ITERATION  ITERATION  MAXIMUM CHANGE SUCCESS             MODEL-PACKAGE-(NUMBER)
 ----------------------------------------------------------------------------------------------------------
 Model                              1          1  5.99129635E-11       *                     1_GWF-(1,1741)
 Package                            1                 -1685084.8                     1_GWF-SFR-(206)-inflow
 Model                              2          1  2.95585778E-11       *                     1_GWF-(1,1528)
 Package                            2            -3.12602884E-05       *             1_GWF-SFR-(206)-inflow
 ----------------------------------------------------------------------------------------------------------


 2 CALLS TO NUMERICAL SOLUTION IN TIME STEP 25 STRESS PERIOD 2
 2 TOTAL ITERATIONS

 OUTER ITERATION SUMMARY
 ----------------------------------------------------------------------------------------------------------
                                OUTER      INNER                    STEP   MAXIMUM CHANGE MODEL-(CELLID) OR
 OUTER ITERATION STEP       ITERATION  ITERATION  MAXIMUM CHANGE SUCCESS             MODEL-PACKAGE-(NUMBER)
 ----------------------------------------------------------------------------------------------------------
 Model                              1          1  4.14956958E-11       *                     1_GWF-(1,1741)
 Package                            1                 -1685084.8                     1_GWF-SFR-(206)-inflow
 Model                              2          1  2.69153588E-11       *                     1_GWF-(1,1528)
 Package                            2            -2.16247903E-05       *             1_GWF-SFR-(206)-inflow
 ----------------------------------------------------------------------------------------------------------


 2 CALLS TO NUMERICAL SOLUTION IN TIME STEP 26 STRESS PERIOD 2
 2 TOTAL ITERATIONS

 OUTER ITERATION SUMMARY
 ----------------------------------------------------------------------------------------------------------
                                OUTER      INNER                    STEP   MAXIMUM CHANGE MODEL-(CELLID) OR
 OUTER ITERATION STEP       ITERATION  ITERATION  MAXIMUM CHANGE SUCCESS             MODEL-PACKAGE-(NUMBER)
 ----------------------------------------------------------------------------------------------------------
 Model                              1          1  2.86775048E-11       *                     1_GWF-(1,1741)
 Package                            1                 -1685084.8                     1_GWF-SFR-(206)-inflow
 Model                              2          1  2.14015472E-11       *                     1_GWF-(1,1528)
 Package                            2            -1.56857682E-05       *             1_GWF-SFR-(206)-inflow
 ----------------------------------------------------------------------------------------------------------


 2 CALLS TO NUMERICAL SOLUTION IN TIME STEP 27 STRESS PERIOD 2
 2 TOTAL ITERATIONS

 OUTER ITERATION SUMMARY
 ----------------------------------------------------------------------------------------------------------
                                OUTER      INNER                    STEP   MAXIMUM CHANGE MODEL-(CELLID) OR
 OUTER ITERATION STEP       ITERATION  ITERATION  MAXIMUM CHANGE SUCCESS             MODEL-PACKAGE-(NUMBER)
 ----------------------------------------------------------------------------------------------------------
 Model                              1          1  2.02078354E-11       *                     1_GWF-(1,1742)
 Package                            1                 -1685084.8                     1_GWF-SFR-(206)-inflow
 Model                              2          1  1.64845915E-11       *                     1_GWF-(1,1632)
 Package                            2            -1.03614752E-05       *             1_GWF-SFR-(206)-inflow
 ----------------------------------------------------------------------------------------------------------


 2 CALLS TO NUMERICAL SOLUTION IN TIME STEP 28 STRESS PERIOD 2
 2 TOTAL ITERATIONS

 OUTER ITERATION SUMMARY
 ----------------------------------------------------------------------------------------------------------
                                OUTER      INNER                    STEP   MAXIMUM CHANGE MODEL-(CELLID) OR
 OUTER ITERATION STEP       ITERATION  ITERATION  MAXIMUM CHANGE SUCCESS             MODEL-PACKAGE-(NUMBER)
 ----------------------------------------------------------------------------------------------------------
 Model                              1          1  1.47508672E-11       *                     1_GWF-(1,1742)
 Package                            1                 -1685084.8                     1_GWF-SFR-(206)-inflow
 Model                              2          1  1.25339739E-11       *                     1_GWF-(1,1632)
 Package                            2            -7.80790916E-06       *             1_GWF-SFR-(206)-inflow
 ----------------------------------------------------------------------------------------------------------


 2 CALLS TO NUMERICAL SOLUTION IN TIME STEP 29 STRESS PERIOD 2
 2 TOTAL ITERATIONS

 OUTER ITERATION SUMMARY
 ----------------------------------------------------------------------------------------------------------
                                OUTER      INNER                    STEP   MAXIMUM CHANGE MODEL-(CELLID) OR
 OUTER ITERATION STEP       ITERATION  ITERATION  MAXIMUM CHANGE SUCCESS             MODEL-PACKAGE-(NUMBER)
 ----------------------------------------------------------------------------------------------------------
 Model                              1          1  1.14823706E-11       *                     1_GWF-(1,1427)
 Package                            1                 -1685084.8                     1_GWF-SFR-(206)-inflow
 Model                              2          1  9.91917659E-12       *                     1_GWF-(1,1632)
 Package                            2            -6.12120792E-06       *             1_GWF-SFR-(206)-inflow
 ----------------------------------------------------------------------------------------------------------


 2 CALLS TO NUMERICAL SOLUTION IN TIME STEP 30 STRESS PERIOD 2
 2 TOTAL ITERATIONS

 OUTER ITERATION SUMMARY
 ----------------------------------------------------------------------------------------------------------
                                OUTER      INNER                    STEP   MAXIMUM CHANGE MODEL-(CELLID) OR
 OUTER ITERATION STEP       ITERATION  ITERATION  MAXIMUM CHANGE SUCCESS             MODEL-PACKAGE-(NUMBER)
 ----------------------------------------------------------------------------------------------------------
 Model                              1          1  9.29389898E-12       *                     1_GWF-(1,1529)
 Package                            1                 -1685084.8                     1_GWF-SFR-(206)-inflow
 Model                              2          1  8.29913915E-12       *                     1_GWF-(1,1531)
 Package                            2            -5.10219219E-06       *             1_GWF-SFR-(206)-inflow
 ----------------------------------------------------------------------------------------------------------


 2 CALLS TO NUMERICAL SOLUTION IN TIME STEP 31 STRESS PERIOD 2
 2 TOTAL ITERATIONS

 OUTER ITERATION SUMMARY
 ----------------------------------------------------------------------------------------------------------
                                OUTER      INNER                    STEP   MAXIMUM CHANGE MODEL-(CELLID) OR
 OUTER ITERATION STEP       ITERATION  ITERATION  MAXIMUM CHANGE SUCCESS             MODEL-PACKAGE-(NUMBER)
 ----------------------------------------------------------------------------------------------------------
 Model                              1          1  7.84439180E-12       *                     1_GWF-(1,1529)
 Package                            1                 -1685084.8                     1_GWF-SFR-(206)-inflow
 Model                              2          1  7.04858394E-12       *                     1_GWF-(1,1749)
 Package                            2            -4.31080999E-06       *             1_GWF-SFR-(206)-inflow
 ----------------------------------------------------------------------------------------------------------


 2 CALLS TO NUMERICAL SOLUTION IN TIME STEP 32 STRESS PERIOD 2
 2 TOTAL ITERATIONS

 OUTER ITERATION SUMMARY
 ----------------------------------------------------------------------------------------------------------
                                OUTER      INNER                    STEP   MAXIMUM CHANGE MODEL-(CELLID) OR
 OUTER ITERATION STEP       ITERATION  ITERATION  MAXIMUM CHANGE SUCCESS             MODEL-PACKAGE-(NUMBER)
 ----------------------------------------------------------------------------------------------------------
 Model                              1          1  6.70752343E-12       *                     1_GWF-(1,1524)
 Package                            1                 -1685084.8                     1_GWF-SFR-(206)-inflow
 Model                              2          1  6.02540240E-12       *                     1_GWF-(1,1632)
 Package                            2            -3.63028058E-06       *             1_GWF-SFR-(206)-inflow
 ----------------------------------------------------------------------------------------------------------


 2 CALLS TO NUMERICAL SOLUTION IN TIME STEP 33 STRESS PERIOD 2
 2 TOTAL ITERATIONS

 OUTER ITERATION SUMMARY
 ----------------------------------------------------------------------------------------------------------
                                OUTER      INNER                    STEP   MAXIMUM CHANGE MODEL-(CELLID) OR
 OUTER ITERATION STEP       ITERATION  ITERATION  MAXIMUM CHANGE SUCCESS             MODEL-PACKAGE-(NUMBER)
 ----------------------------------------------------------------------------------------------------------
 Model                              1          1  5.71276360E-12       *                     1_GWF-(1,1524)
 Package                            1                 -1685084.8                     1_GWF-SFR-(206)-inflow
 Model                              2          1  5.25801624E-12       *                     1_GWF-(1,1523)
 Package                            2            -3.11691955E-06       *             1_GWF-SFR-(206)-inflow
 ----------------------------------------------------------------------------------------------------------


 2 CALLS TO NUMERICAL SOLUTION IN TIME STEP 34 STRESS PERIOD 2
 2 TOTAL ITERATIONS

 OUTER ITERATION SUMMARY
 ----------------------------------------------------------------------------------------------------------
                                OUTER      INNER                    STEP   MAXIMUM CHANGE MODEL-(CELLID) OR
 OUTER ITERATION STEP       ITERATION  ITERATION  MAXIMUM CHANGE SUCCESS             MODEL-PACKAGE-(NUMBER)
 ----------------------------------------------------------------------------------------------------------
 Model                              1          1  4.91695573E-12       *                     1_GWF-(1,1631)
 Package                            1                 -1685084.8                     1_GWF-SFR-(206)-inflow
 Model                              2          1  4.63273864E-12       *                     1_GWF-(2,1631)
 Package                            2            -2.58755303E-06       *             1_GWF-SFR-(206)-inflow
 ----------------------------------------------------------------------------------------------------------


 2 CALLS TO NUMERICAL SOLUTION IN TIME STEP 35 STRESS PERIOD 2
 2 TOTAL ITERATIONS

 OUTER ITERATION SUMMARY
 ----------------------------------------------------------------------------------------------------------
                                OUTER      INNER                    STEP   MAXIMUM CHANGE MODEL-(CELLID) OR
 OUTER ITERATION STEP       ITERATION  ITERATION  MAXIMUM CHANGE SUCCESS             MODEL-PACKAGE-(NUMBER)
 ----------------------------------------------------------------------------------------------------------
 Model                              1          1  4.40536496E-12       *                     1_GWF-(1,1631)
 Package                            1                 -1685084.8                     1_GWF-SFR-(206)-inflow
 Model                              2          1  4.14956958E-12       *                     1_GWF-(1,1632)
 Package                            2            -2.42828860E-06       *             1_GWF-SFR-(206)-inflow
 ----------------------------------------------------------------------------------------------------------


 2 CALLS TO NUMERICAL SOLUTION IN TIME STEP 36 STRESS PERIOD 2
 2 TOTAL ITERATIONS

 OUTER ITERATION SUMMARY
 ----------------------------------------------------------------------------------------------------------
                                OUTER      INNER                    STEP   MAXIMUM CHANGE MODEL-(CELLID) OR
 OUTER ITERATION STEP       ITERATION  ITERATION  MAXIMUM CHANGE SUCCESS             MODEL-PACKAGE-(NUMBER)
 ----------------------------------------------------------------------------------------------------------
 Model                              1          1  3.89377419E-12       *                     1_GWF-(3,1525)
 Package                            1                 -1685084.8                     1_GWF-SFR-(206)-inflow
 Model                              2          1  3.78008735E-12       *                     1_GWF-(1,1522)
 Package                            2            -2.16548252E-06       *             1_GWF-SFR-(206)-inflow
 ----------------------------------------------------------------------------------------------------------


 2 CALLS TO NUMERICAL SOLUTION IN TIME STEP 37 STRESS PERIOD 2
 2 TOTAL ITERATIONS

 OUTER ITERATION SUMMARY
 ----------------------------------------------------------------------------------------------------------
                                OUTER      INNER                    STEP   MAXIMUM CHANGE MODEL-(CELLID) OR
 OUTER ITERATION STEP       ITERATION  ITERATION  MAXIMUM CHANGE SUCCESS             MODEL-PACKAGE-(NUMBER)
 ----------------------------------------------------------------------------------------------------------
 Model                              1          1  3.52429197E-12       *                     1_GWF-(1,1634)
 Package                            1                 -1685084.8                     1_GWF-SFR-(206)-inflow
 Model                              2          1  3.38218342E-12       *                     1_GWF-(1,1522)
 Package                            2            -1.91334677E-06       *             1_GWF-SFR-(206)-inflow
 ----------------------------------------------------------------------------------------------------------


 2 CALLS TO NUMERICAL SOLUTION IN TIME STEP 38 STRESS PERIOD 2
 2 TOTAL ITERATIONS

 OUTER ITERATION SUMMARY
 ----------------------------------------------------------------------------------------------------------
                                OUTER      INNER                    STEP   MAXIMUM CHANGE MODEL-(CELLID) OR
 OUTER ITERATION STEP       ITERATION  ITERATION  MAXIMUM CHANGE SUCCESS             MODEL-PACKAGE-(NUMBER)
 ----------------------------------------------------------------------------------------------------------
 Model                              1          1  3.15480975E-12       *                     1_GWF-(2,1629)
 Package                            1                 -1685084.8                     1_GWF-SFR-(206)-inflow
 Model                              2          1  3.01270120E-12       *                     1_GWF-(1,1741)
 Package                            2            -1.65824704E-06       *             1_GWF-SFR-(206)-inflow
 ----------------------------------------------------------------------------------------------------------


 2 CALLS TO NUMERICAL SOLUTION IN TIME STEP 39 STRESS PERIOD 2
 2 TOTAL ITERATIONS

 OUTER ITERATION SUMMARY
 ----------------------------------------------------------------------------------------------------------
                                OUTER      INNER                    STEP   MAXIMUM CHANGE MODEL-(CELLID) OR
 OUTER ITERATION STEP       ITERATION  ITERATION  MAXIMUM CHANGE SUCCESS             MODEL-PACKAGE-(NUMBER)
 ----------------------------------------------------------------------------------------------------------
 Model                              1          1  2.92743607E-12       *                     1_GWF-(1,1532)
 Package                            1                 -1685084.8                     1_GWF-SFR-(206)-inflow
 Model                              2          1  2.87059265E-12       *                     1_GWF-(1,1749)
 Package                            2            -1.52664641E-06       *             1_GWF-SFR-(206)-inflow
 ----------------------------------------------------------------------------------------------------------


 2 CALLS TO NUMERICAL SOLUTION IN TIME STEP 40 STRESS PERIOD 2
 2 TOTAL ITERATIONS

 OUTER ITERATION SUMMARY
 ----------------------------------------------------------------------------------------------------------
                                OUTER      INNER                    STEP   MAXIMUM CHANGE MODEL-(CELLID) OR
 OUTER ITERATION STEP       ITERATION  ITERATION  MAXIMUM CHANGE SUCCESS             MODEL-PACKAGE-(NUMBER)
 ----------------------------------------------------------------------------------------------------------
 Model                              1          1  2.67164069E-12       *                     1_GWF-(1,1529)
 Package                            1                 -1685084.8                     1_GWF-SFR-(206)-inflow
 Model                              2          1  2.58637556E-12       *                     1_GWF-(1,1530)
 Package                            2            -1.44365502E-06       *             1_GWF-SFR-(206)-inflow
 ----------------------------------------------------------------------------------------------------------


 2 CALLS TO NUMERICAL SOLUTION IN TIME STEP 41 STRESS PERIOD 2
 2 TOTAL ITERATIONS

 OUTER ITERATION SUMMARY
 ----------------------------------------------------------------------------------------------------------
                                OUTER      INNER                    STEP   MAXIMUM CHANGE MODEL-(CELLID) OR
 OUTER ITERATION STEP       ITERATION  ITERATION  MAXIMUM CHANGE SUCCESS             MODEL-PACKAGE-(NUMBER)
 ----------------------------------------------------------------------------------------------------------
 Model                              1          1  2.47268872E-12       *                     1_GWF-(2,1634)
 Package                            1                 -1685084.8                     1_GWF-SFR-(206)-inflow
 Model                              2          1  2.41584530E-12       *                     1_GWF-(1,1630)
 Package                            2            -1.28656417E-06       *             1_GWF-SFR-(206)-inflow
 ----------------------------------------------------------------------------------------------------------


 2 CALLS TO NUMERICAL SOLUTION IN TIME STEP 42 STRESS PERIOD 2
 2 TOTAL ITERATIONS

 OUTER ITERATION SUMMARY
 ----------------------------------------------------------------------------------------------------------
                                OUTER      INNER                    STEP   MAXIMUM CHANGE MODEL-(CELLID) OR
 OUTER ITERATION STEP       ITERATION  ITERATION  MAXIMUM CHANGE SUCCESS             MODEL-PACKAGE-(NUMBER)
 ----------------------------------------------------------------------------------------------------------
 Model                              1          1  2.30215846E-12       *                     1_GWF-(2,1630)
 Package                            1                 -1685084.8                     1_GWF-SFR-(206)-inflow
 Model                              2          1  2.18847163E-12       *                     1_GWF-(3,1528)
 Package                            2            -1.23222457E-06       *             1_GWF-SFR-(206)-inflow
 ----------------------------------------------------------------------------------------------------------


 2 CALLS TO NUMERICAL SOLUTION IN TIME STEP 43 STRESS PERIOD 2
 2 TOTAL ITERATIONS

 OUTER ITERATION SUMMARY
 ----------------------------------------------------------------------------------------------------------
                                OUTER      INNER                    STEP   MAXIMUM CHANGE MODEL-(CELLID) OR
 OUTER ITERATION STEP       ITERATION  ITERATION  MAXIMUM CHANGE SUCCESS             MODEL-PACKAGE-(NUMBER)
 ----------------------------------------------------------------------------------------------------------
 Model                              1          1  2.13162821E-12       *                     1_GWF-(2,1525)
 Package                            1                 -1685084.8                     1_GWF-SFR-(206)-inflow
 Model                              2          1  2.04636308E-12       *                     1_GWF-(1,1523)
 Package                            2            -1.19428564E-06       *             1_GWF-SFR-(206)-inflow
 ----------------------------------------------------------------------------------------------------------


 2 CALLS TO NUMERICAL SOLUTION IN TIME STEP 44 STRESS PERIOD 2
 2 TOTAL ITERATIONS

 OUTER ITERATION SUMMARY
 ----------------------------------------------------------------------------------------------------------
                                OUTER      INNER                    STEP   MAXIMUM CHANGE MODEL-(CELLID) OR
 OUTER ITERATION STEP       ITERATION  ITERATION  MAXIMUM CHANGE SUCCESS             MODEL-PACKAGE-(NUMBER)
 ----------------------------------------------------------------------------------------------------------
 Model                              1          1  1.98951966E-12       *                     1_GWF-(2,1523)
 Package                            1                 -1685084.8                     1_GWF-SFR-(206)-inflow
 Model                              2          1  1.96109795E-12       *                     1_GWF-(1,1629)
 Package                            2            -1.12809013E-06       *             1_GWF-SFR-(206)-inflow
 ----------------------------------------------------------------------------------------------------------


 2 CALLS TO NUMERICAL SOLUTION IN TIME STEP 45 STRESS PERIOD 2
 2 TOTAL ITERATIONS

 OUTER ITERATION SUMMARY
 ----------------------------------------------------------------------------------------------------------
                                OUTER      INNER                    STEP   MAXIMUM CHANGE MODEL-(CELLID) OR
 OUTER ITERATION STEP       ITERATION  ITERATION  MAXIMUM CHANGE SUCCESS             MODEL-PACKAGE-(NUMBER)
 ----------------------------------------------------------------------------------------------------------
 Model                              1          1  1.87583282E-12       *                     1_GWF-(1,1525)
 Package                            1                 -1685084.8                     1_GWF-SFR-(206)-inflow
 Model                              2          1  1.81898940E-12       *                     1_GWF-(1,1636)
 Package                            2            -1.00617182E-06       *             1_GWF-SFR-(206)-inflow
 ----------------------------------------------------------------------------------------------------------


 2 CALLS TO NUMERICAL SOLUTION IN TIME STEP 46 STRESS PERIOD 2
 2 TOTAL ITERATIONS

 OUTER ITERATION SUMMARY
 ----------------------------------------------------------------------------------------------------------
                                OUTER      INNER                    STEP   MAXIMUM CHANGE MODEL-(CELLID) OR
 OUTER ITERATION STEP       ITERATION  ITERATION  MAXIMUM CHANGE SUCCESS             MODEL-PACKAGE-(NUMBER)
 ----------------------------------------------------------------------------------------------------------
 Model                              1          1  1.76214598E-12       *                     1_GWF-(1,1741)
 Package                            1                 -1685084.8                     1_GWF-SFR-(206)-inflow
 Model                              2          1  1.67688086E-12       *                     1_GWF-(2,1519)
 Package                            2            -9.73370464E-07       *             1_GWF-SFR-(206)-inflow
 ----------------------------------------------------------------------------------------------------------


 2 CALLS TO NUMERICAL SOLUTION IN TIME STEP 47 STRESS PERIOD 2
 2 TOTAL ITERATIONS

 OUTER ITERATION SUMMARY
 ----------------------------------------------------------------------------------------------------------
                                OUTER      INNER                    STEP   MAXIMUM CHANGE MODEL-(CELLID) OR
 OUTER ITERATION STEP       ITERATION  ITERATION  MAXIMUM CHANGE SUCCESS             MODEL-PACKAGE-(NUMBER)
 ----------------------------------------------------------------------------------------------------------
 Model                              1          1  1.62003744E-12       *                     1_GWF-(2,1747)
 Package                            1                 -1685084.8                     1_GWF-SFR-(206)-inflow
 Model                              2          1  1.59161573E-12       *                     1_GWF-(1,1748)
 Package                            2            -9.14288497E-07       *             1_GWF-SFR-(206)-inflow
 ----------------------------------------------------------------------------------------------------------


 2 CALLS TO NUMERICAL SOLUTION IN TIME STEP 48 STRESS PERIOD 2
 2 TOTAL ITERATIONS

 MEMORY MANAGER TOTAL STORAGE BY DATA TYPE, IN MEGABYTES
 -------------------------------
                    ALLOCATED   
 DATA TYPE           MEMORY     
 -------------------------------
 Character        2.26730000E-02
 Logical          4.40000000E-05
 Integer          2.0449680     
 Real             4.8055200     
 -------------------------------
 Total            6.8732050     
 -------------------------------


 
 Run end date and time (yyyy/mm/dd hh:mm:ss): 2021/12/09  9:34:11
 Elapsed run time:  3.136 Seconds
 Normal termination of simulation.
