                                   MODFLOW 6
                U.S. GEOLOGICAL SURVEY MODULAR HYDROLOGIC MODEL
                          GROUNDWATER FLOW MODEL (GWF)
                            VERSION 6.2.1 02/18/2021

   MODFLOW 6 compiled Feb 18 2021 21:14:51 with IFORT compiler (ver. 19.10.3)

This software has been approved for release by the U.S. Geological 
Survey (USGS). Although the software has been subjected to rigorous 
review, the USGS reserves the right to update the software as needed 
pursuant to further analysis and review. No warranty, expressed or 
implied, is made by the USGS or the U.S. Government as to the 
functionality of the software and related material nor shall the 
fact of release constitute any such warranty. Furthermore, the 
software is released on condition that neither the USGS nor the U.S. 
Government shall be held liable for any damages resulting from its 
authorized or unauthorized use. Also refer to the USGS Water 
Resources Software User Rights Notice for complete use, copyright, 
and distribution information.


System command used to initiate simulation:
mf6.exe

MODFLOW was compiled using uniform precision.

Real Variables
  KIND: 8
  TINY (smallest non-zero value):    2.225074-308
  HUGE (largest value):    1.797693+308
  PRECISION: 15
  BIT SIZE: 64

Integer Variables
  KIND: 4
  HUGE (largest value): 2147483647
  BIT SIZE: 32

Long Integer Variables
  KIND: 8
  HUGE (largest value): 9223372036854775807
  BIT SIZE: 64

Logical Variables
  KIND: 4
  BIT SIZE: 32
 

 OPENED hagfors.dis
 FILE TYPE:DIS6                   UNIT 1005   STATUS:OLD                 
 FORMAT:FORMATTED              ACCESS:SEQUENTIAL          
 ACTION:READ                


 OPENED hagfors.ic
 FILE TYPE:IC6                    UNIT 1006   STATUS:OLD                 
 FORMAT:FORMATTED              ACCESS:SEQUENTIAL          
 ACTION:READ                


 OPENED hagfors.npf
 FILE TYPE:NPF6                   UNIT 1007   STATUS:OLD                 
 FORMAT:FORMATTED              ACCESS:SEQUENTIAL          
 ACTION:READ                


 OPENED hagfors.oc
 FILE TYPE:OC6                    UNIT 1008   STATUS:OLD                 
 FORMAT:FORMATTED              ACCESS:SEQUENTIAL          
 ACTION:READ                


 OPENED hagfors.ghb
 FILE TYPE:GHB6                   UNIT 1009   STATUS:OLD                 
 FORMAT:FORMATTED              ACCESS:SEQUENTIAL          
 ACTION:READ                


 OPENED hagfors.sfr
 FILE TYPE:SFR6                   UNIT 1010   STATUS:OLD                 
 FORMAT:FORMATTED              ACCESS:SEQUENTIAL          
 ACTION:READ                


 OPENED hagfors.rcha
 FILE TYPE:RCH6                   UNIT 1011   STATUS:OLD                 
 FORMAT:FORMATTED              ACCESS:SEQUENTIAL          
 ACTION:READ                


 OPENED hagfors.obs
 FILE TYPE:OBS6                   UNIT 1012   STATUS:OLD                 
 FORMAT:FORMATTED              ACCESS:SEQUENTIAL          
 ACTION:READ                

 NAMEFILE OPTIONS:
    STRESS PACKAGE INPUT WILL BE PRINTED FOR ALL MODEL STRESS PACKAGES
    FLOWS WILL BE SAVED TO BUDGET FILE SPECIFIED IN OUTPUT CONTROL

 DIS -- STRUCTURED GRID DISCRETIZATION PACKAGE, VERSION 2 : 3/27/2014 - INPUT READ FROM UNIT 1005


 # File generated by Flopy version 3.3.3 on 06/05/2021 at 19:37:49.
 PROCESSING DISCRETIZATION OPTIONS
    MODEL LENGTH UNIT IS METERS
    XORIGIN SPECIFIED AS     427170.338000000    
    YORIGIN SPECIFIED AS     6654515.49000000    
    ANGROT SPECIFIED AS     45.0000000000000    
 END OF DISCRETIZATION OPTIONS
 PROCESSING DISCRETIZATION DIMENSIONS
    NLAY =       3
    NROW =     234
    NCOL =     380
 END OF DISCRETIZATION DIMENSIONS
 PROCESSING GRIDDATA

 OPENED hagfors.dis_delr.txt
 FILE TYPE:OPEN/CLOSE   UNIT 1014   STATUS:OLD                 
 FORMAT:FORMATTED              ACCESS:SEQUENTIAL          
 ACTION:READ                


 OPENED hagfors.dis_delc.txt
 FILE TYPE:OPEN/CLOSE   UNIT 1015   STATUS:OLD                 
 FORMAT:FORMATTED              ACCESS:SEQUENTIAL          
 ACTION:READ                


 OPENED hagfors.dis_top.txt
 FILE TYPE:OPEN/CLOSE   UNIT 1016   STATUS:OLD                 
 FORMAT:FORMATTED              ACCESS:SEQUENTIAL          
 ACTION:READ                


 OPENED hagfors.dis_botm_layer1.txt
 FILE TYPE:OPEN/CLOSE   UNIT 1017   STATUS:OLD                 
 FORMAT:FORMATTED              ACCESS:SEQUENTIAL          
 ACTION:READ                


 OPENED hagfors.dis_botm_layer2.txt
 FILE TYPE:OPEN/CLOSE   UNIT 1018   STATUS:OLD                 
 FORMAT:FORMATTED              ACCESS:SEQUENTIAL          
 ACTION:READ                


 OPENED hagfors.dis_botm_layer3.txt
 FILE TYPE:OPEN/CLOSE   UNIT 1019   STATUS:OLD                 
 FORMAT:FORMATTED              ACCESS:SEQUENTIAL          
 ACTION:READ                


 OPENED hagfors.dis_idomain_layer1.txt
 FILE TYPE:OPEN/CLOSE   UNIT 1020   STATUS:OLD                 
 FORMAT:FORMATTED              ACCESS:SEQUENTIAL          
 ACTION:READ                


 OPENED hagfors.dis_idomain_layer2.txt
 FILE TYPE:OPEN/CLOSE   UNIT 1021   STATUS:OLD                 
 FORMAT:FORMATTED              ACCESS:SEQUENTIAL          
 ACTION:READ                


 OPENED hagfors.dis_idomain_layer3.txt
 FILE TYPE:OPEN/CLOSE   UNIT 1022   STATUS:OLD                 
 FORMAT:FORMATTED              ACCESS:SEQUENTIAL          
 ACTION:READ                

 END PROCESSING GRIDDATA

 THE SPECIFIED IDOMAIN RESULTS IN A REDUCED NUMBER OF CELLS.
 NUMBER OF USER NODES: 266760
 NUMBER OF NODES IN SOLUTION: 196152



 NPF -- NODE PROPERTY FLOW PACKAGE, VERSION 1, 3/30/2015 INPUT READ FROM UNIT 1007


 # File generated by Flopy version 3.3.3 on 06/05/2021 at 19:37:50.
 PROCESSING NPF OPTIONS
    CELL-BY-CELL FLOW INFORMATION WILL BE SAVED TO BINARY FILE WHENEVER ICBCFL IS NOT ZERO.
    SPECIFIC DISCHARGE WILL BE CALCULATED AT CELL CENTERS AND WRITTEN TO DATA-SPDIS IN BUDGET FILE WHEN REQUESTED.
 END OF NPF OPTIONS

 GHB   -- GHB PACKAGE, VERSION 8, 2/22/2014 INPUT READ FROM UNIT 1009
 # File generated by Flopy version 3.3.3 on 06/05/2021 at 19:37:50.

 PROCESSING GHB OPTIONS
    AUXILIARY GHB VARIABLE: IFACE           
    GHB BOUNDARIES HAVE NAMES IN LAST COLUMN.
    LISTS OF GHB CELLS WILL BE PRINTED.
    FLOWS WILL BE SAVED TO BUDGET FILE SPECIFIED IN OUTPUT CONTROL
 END OF GHB OPTIONS

 PROCESSING GHB DIMENSIONS
    MAXBOUND =     144
 END OF GHB DIMENSIONS

 RCH   -- RCH PACKAGE, VERSION 8, 2/22/2014 INPUT READ FROM UNIT 1011
 # File generated by Flopy version 3.3.3 on 06/05/2021 at 19:37:50.

 PROCESSING RCH OPTIONS
    RECHARGE INPUT WILL BE READ AS ARRAY(S).
    FLOWS WILL BE SAVED TO BUDGET FILE SPECIFIED IN OUTPUT CONTROL
 END OF RCH OPTIONS

 SFR   -- SFR PACKAGE, VERSION 8, 2/22/2014 INPUT READ FROM UNIT 1010
 # File generated by Flopy version 3.3.3 on 06/05/2021 at 19:37:50.

 PROCESSING SFR OPTIONS
    SFR BOUNDARIES HAVE NAMES IN LAST COLUMN.
    LISTS OF SFR CELLS WILL BE PRINTED.
    SFR STAGES WILL BE PRINTED TO LISTING FILE.
    SFR FLOWS WILL BE PRINTED TO LISTING FILE.
    FLOWS WILL BE SAVED TO BUDGET FILE SPECIFIED IN OUTPUT CONTROL

 OPENED hagfors.stage
 FILE TYPE:DATA(BINARY)   UNIT 1023   STATUS:REPLACE             
 FORMAT:UNFORMATTED            ACCESS:STREAM              
 ACTION:READWRITE           

    SFR  STAGE  WILL BE SAVED TO FILE: hagfors.stage                                                                                                                                                                                                                                                                                                                                                                                                                                                                                                                                                                                                                                                                                                                                                                                                                                                                                                                                                                                                                                                                                                                                                                                                                                                                                                                                                                                                                                                                                                                                                                                                                                                                                                                                                                                                                                                                                                                                                                                                                                                                                                                                                                                                                                                                                                                                                                                                                                                                                                                                                                                                                                                                                                                                                                                                                                                                                                                                                                                                                                                                                                                                                                                                                                                                                                                                                                                                                                                                                                                                                                                                                                                                                                                                                                                                                                                                                                                                                                                                                                                                                                                                                                                                                                                                                                                                                                                                                                                                                                                                                                                                                                                                                                                                                                                                                                                                                                                                                                                                                                                                                                                                                                                           
    OPENED ON UNIT:    1023

 OPENED hagfors.sfr_budget
 FILE TYPE:DATA(BINARY)   UNIT 1024   STATUS:REPLACE             
 FORMAT:UNFORMATTED            ACCESS:STREAM              
 ACTION:READWRITE           

    SFR  BUDGET  WILL BE SAVED TO FILE: hagfors.sfr_budget                                                                                                                                                                                                                                                                                                                                                                                                                                                                                                                                                                                                                                                                                                                                                                                                                                                                                                                                                                                                                                                                                                                                                                                                                                                                                                                                                                                                                                                                                                                                                                                                                                                                                                                                                                                                                                                                                                                                                                                                                                                                                                                                                                                                                                                                                                                                                                                                                                                                                                                                                                                                                                                                                                                                                                                                                                                                                                                                                                                                                                                                                                                                                                                                                                                                                                                                                                                                                                                                                                                                                                                                                                                                                                                                                                                                                                                                                                                                                                                                                                                                                                                                                                                                                                                                                                                                                                                                                                                                                                                                                                                                                                                                                                                                                                                                                                                                                                                                                                                                                                                                                                                                                                                      
    OPENED ON UNIT:    1024

 OPENED hagfors.sfr.obs
 FILE TYPE:OBS   UNIT 1025   STATUS:OLD                 
 FORMAT:FORMATTED              ACCESS:SEQUENTIAL          
 ACTION:READ                

    MAXIMUM SFR ITERATION VALUE (100) SPECIFIED.
    MAXIMUM DEPTH CHANGE VALUE (.1000000000000000E-04) SPECIFIED.
    UNIT CONVERSION VALUE (86400.00000000000) SPECIFIED.
 END OF SFR OPTIONS

 PROCESSING SFR DIMENSIONS
    NREACHES = 698
 END OF SFR DIMENSIONS

 OPENED hagfors.sfr_packagedata.txt
 FILE TYPE:OPEN/CLOSE   UNIT 1026   STATUS:OLD                 
 FORMAT:FORMATTED              ACCESS:SEQUENTIAL          
 ACTION:READ                


 PROCESSING SFR PACKAGEDATA
 END OF SFR PACKAGEDATA

 OPENED hagfors.sfr_connectiondata.txt
 FILE TYPE:OPEN/CLOSE   UNIT 1027   STATUS:OLD                 
 FORMAT:FORMATTED              ACCESS:SEQUENTIAL          
 ACTION:READ                


 PROCESSING SFR CONNECTIONDATA
 END OF SFR CONNECTIONDATA

 IC -- INITIAL CONDITIONS PACKAGE, VERSION 8, 3/28/2015 INPUT READ FROM UNIT 1006
 # File generated by Flopy version 3.3.3 on 06/05/2021 at 19:37:49.
 PROCESSING GRIDDATA
 END PROCESSING GRIDDATA
 PROCESSING GRIDDATA

 OPENED hagfors.npf_icelltype_layer1.txt
 FILE TYPE:OPEN/CLOSE   UNIT 1028   STATUS:OLD                 
 FORMAT:FORMATTED              ACCESS:SEQUENTIAL          
 ACTION:READ                


 OPENED hagfors.npf_icelltype_layer2.txt
 FILE TYPE:OPEN/CLOSE   UNIT 1029   STATUS:OLD                 
 FORMAT:FORMATTED              ACCESS:SEQUENTIAL          
 ACTION:READ                


 OPENED hagfors.npf_icelltype_layer3.txt
 FILE TYPE:OPEN/CLOSE   UNIT 1030   STATUS:OLD                 
 FORMAT:FORMATTED              ACCESS:SEQUENTIAL          
 ACTION:READ                


 OPENED hagfors.npf_k_layer1.txt
 FILE TYPE:OPEN/CLOSE   UNIT 1031   STATUS:OLD                 
 FORMAT:FORMATTED              ACCESS:SEQUENTIAL          
 ACTION:READ                


 OPENED hagfors.npf_k_layer2.txt
 FILE TYPE:OPEN/CLOSE   UNIT 1032   STATUS:OLD                 
 FORMAT:FORMATTED              ACCESS:SEQUENTIAL          
 ACTION:READ                


 OPENED hagfors.npf_k_layer3.txt
 FILE TYPE:OPEN/CLOSE   UNIT 1033   STATUS:OLD                 
 FORMAT:FORMATTED              ACCESS:SEQUENTIAL          
 ACTION:READ                


 OPENED hagfors.npf_k22_layer1.txt
 FILE TYPE:OPEN/CLOSE   UNIT 1034   STATUS:OLD                 
 FORMAT:FORMATTED              ACCESS:SEQUENTIAL          
 ACTION:READ                


 OPENED hagfors.npf_k22_layer2.txt
 FILE TYPE:OPEN/CLOSE   UNIT 1035   STATUS:OLD                 
 FORMAT:FORMATTED              ACCESS:SEQUENTIAL          
 ACTION:READ                


 OPENED hagfors.npf_k22_layer3.txt
 FILE TYPE:OPEN/CLOSE   UNIT 1036   STATUS:OLD                 
 FORMAT:FORMATTED              ACCESS:SEQUENTIAL          
 ACTION:READ                


 OPENED hagfors.npf_k33_layer1.txt
 FILE TYPE:OPEN/CLOSE   UNIT 1037   STATUS:OLD                 
 FORMAT:FORMATTED              ACCESS:SEQUENTIAL          
 ACTION:READ                


 OPENED hagfors.npf_k33_layer2.txt
 FILE TYPE:OPEN/CLOSE   UNIT 1038   STATUS:OLD                 
 FORMAT:FORMATTED              ACCESS:SEQUENTIAL          
 ACTION:READ                


 OPENED hagfors.npf_k33_layer3.txt
 FILE TYPE:OPEN/CLOSE   UNIT 1039   STATUS:OLD                 
 FORMAT:FORMATTED              ACCESS:SEQUENTIAL          
 ACTION:READ                


 OPENED hagfors.npf_angle1_layer1.txt
 FILE TYPE:OPEN/CLOSE   UNIT 1040   STATUS:OLD                 
 FORMAT:FORMATTED              ACCESS:SEQUENTIAL          
 ACTION:READ                


 OPENED hagfors.npf_angle1_layer2.txt
 FILE TYPE:OPEN/CLOSE   UNIT 1041   STATUS:OLD                 
 FORMAT:FORMATTED              ACCESS:SEQUENTIAL          
 ACTION:READ                


 OPENED hagfors.npf_angle1_layer3.txt
 FILE TYPE:OPEN/CLOSE   UNIT 1042   STATUS:OLD                 
 FORMAT:FORMATTED              ACCESS:SEQUENTIAL          
 ACTION:READ                


 OPENED hagfors.npf_angle2_layer1.txt
 FILE TYPE:OPEN/CLOSE   UNIT 1043   STATUS:OLD                 
 FORMAT:FORMATTED              ACCESS:SEQUENTIAL          
 ACTION:READ                


 OPENED hagfors.npf_angle2_layer2.txt
 FILE TYPE:OPEN/CLOSE   UNIT 1044   STATUS:OLD                 
 FORMAT:FORMATTED              ACCESS:SEQUENTIAL          
 ACTION:READ                


 OPENED hagfors.npf_angle2_layer3.txt
 FILE TYPE:OPEN/CLOSE   UNIT 1045   STATUS:OLD                 
 FORMAT:FORMATTED              ACCESS:SEQUENTIAL          
 ACTION:READ                


 OPENED hagfors.npf_angle3_layer1.txt
 FILE TYPE:OPEN/CLOSE   UNIT 1046   STATUS:OLD                 
 FORMAT:FORMATTED              ACCESS:SEQUENTIAL          
 ACTION:READ                


 OPENED hagfors.npf_angle3_layer2.txt
 FILE TYPE:OPEN/CLOSE   UNIT 1047   STATUS:OLD                 
 FORMAT:FORMATTED              ACCESS:SEQUENTIAL          
 ACTION:READ                


 OPENED hagfors.npf_angle3_layer3.txt
 FILE TYPE:OPEN/CLOSE   UNIT 1048   STATUS:OLD                 
 FORMAT:FORMATTED              ACCESS:SEQUENTIAL          
 ACTION:READ                

 END PROCESSING GRIDDATA

The observation utility is active for "HAGFORS"
 # File generated by Flopy version 3.3.3 on 06/05/2021 at 19:37:50.

Processing observation options:

Text output number of digits of precision set to: 10
The PRINT_INPUT option has been specified.


 OBSERVATIONS READ FROM FILE "hagfors.obs"
 ----------------------------------------------------------------------------------------------------------------------------------------------------------------------------------------------------------------------------
 NAME                                     TYPE                                       TIME         LOCATION DATA                              OUTPUT FILENAME                                                                 
 ----------------------------------------------------------------------------------------------------------------------------------------------------------------------------------------------------------------------------
 B9-2                                     CONTINUOUS  HEAD                           ALL TIMES    "1 44 13  1 44 14"                         head.obs.csv                                                                    
 B10-2                                    CONTINUOUS  HEAD                           ALL TIMES    "1 98 69  1 98 70"                         head.obs.csv                                                                    
 B12-1                                    CONTINUOUS  HEAD                           ALL TIMES    "1 106 325  1 106 326"                     head.obs.csv                                                                    
 B16-1                                    CONTINUOUS  HEAD                           ALL TIMES    "1 140 265  1 140 266"                     head.obs.csv                                                                    
 B2-1                                     CONTINUOUS  HEAD                           ALL TIMES    "1 126 261  1 126 262"                     head.obs.csv                                                                    
 B22-1                                    CONTINUOUS  HEAD                           ALL TIMES    "1 111 321  1 111 322"                     head.obs.csv                                                                    
 B27                                      CONTINUOUS  HEAD                           ALL TIMES    "1 107 330  1 107 331"                     head.obs.csv                                                                    
 B29                                      CONTINUOUS  HEAD                           ALL TIMES    "1 116 264  1 116 265"                     head.obs.csv                                                                    
 KB1-1                                    CONTINUOUS  HEAD                           ALL TIMES    "1 166 236  1 166 237"                     head.obs.csv                                                                    
 KB4-3                                    CONTINUOUS  HEAD                           ALL TIMES    "1 99 178  1 99 179"                       head.obs.csv                                                                    
 NI1301-1                                 CONTINUOUS  HEAD                           ALL TIMES    "1 112 329  1 112 330"                     head.obs.csv                                                                    
 NI1302-1                                 CONTINUOUS  HEAD                           ALL TIMES    "1 109 325  1 109 326"                     head.obs.csv                                                                    
 NI1403-1                                 CONTINUOUS  HEAD                           ALL TIMES    "1 165 282  1 165 283"                     head.obs.csv                                                                    
 NI1405-1                                 CONTINUOUS  HEAD                           ALL TIMES    "1 157 290  1 157 291"                     head.obs.csv                                                                    
 NI1407-1                                 CONTINUOUS  HEAD                           ALL TIMES    "1 112 311  1 112 312"                     head.obs.csv                                                                    
 NI1408-1                                 CONTINUOUS  HEAD                           ALL TIMES    "1 106 311  1 106 312"                     head.obs.csv                                                                    
 NI1409-1                                 CONTINUOUS  HEAD                           ALL TIMES    "1 122 311  1 122 312"                     head.obs.csv                                                                    
 NI1410-1                                 CONTINUOUS  HEAD                           ALL TIMES    "1 121 321  1 121 322"                     head.obs.csv                                                                    
 NI1411-1                                 CONTINUOUS  HEAD                           ALL TIMES    "1 116 327  1 116 328"                     head.obs.csv                                                                    
 NI1412-1                                 CONTINUOUS  HEAD                           ALL TIMES    "1 165 278  1 165 279"                     head.obs.csv                                                                    
 NI1413-1                                 CONTINUOUS  HEAD                           ALL TIMES    "1 169 268  1 169 269"                     head.obs.csv                                                                    
 NI1501-1                                 CONTINUOUS  HEAD                           ALL TIMES    "1 102 270  1 102 271"                     head.obs.csv                                                                    
 NI1502-2                                 CONTINUOUS  HEAD                           ALL TIMES    "1 92 336  1 92 337"                       head.obs.csv                                                                    
 NI1503-2                                 CONTINUOUS  HEAD                           ALL TIMES    "1 94 339  1 94 340"                       head.obs.csv                                                                    
 NI1504-2                                 CONTINUOUS  HEAD                           ALL TIMES    "1 99 336  1 99 337"                       head.obs.csv                                                                    
 NI1505-1                                 CONTINUOUS  HEAD                           ALL TIMES    "1 101 327  1 101 328"                     head.obs.csv                                                                    
 NI1506-1                                 CONTINUOUS  HEAD                           ALL TIMES    "1 105 325  1 105 326"                     head.obs.csv                                                                    
 NI15-O1                                  CONTINUOUS  HEAD                           ALL TIMES    "1 171 221  1 171 222"                     head.obs.csv                                                                    
 NI15-O44                                 CONTINUOUS  HEAD                           ALL TIMES    "1 161 226  1 161 227"                     head.obs.csv                                                                    
 NI15-O46                                 CONTINUOUS  HEAD                           ALL TIMES    "1 115 223  1 115 224"                     head.obs.csv                                                                    
 NI15-O47                                 CONTINUOUS  HEAD                           ALL TIMES    "1 121 203  1 121 204"                     head.obs.csv                                                                    
 NI15-O48                                 CONTINUOUS  HEAD                           ALL TIMES    "1 81 152  1 81 153"                       head.obs.csv                                                                    
 NI1601-1                                 CONTINUOUS  HEAD                           ALL TIMES    "1 160 245  1 160 246"                     head.obs.csv                                                                    
 NI1602-1                                 CONTINUOUS  HEAD                           ALL TIMES    "1 151 210  1 151 211"                     head.obs.csv                                                                    
 NI1603-1                                 CONTINUOUS  HEAD                           ALL TIMES    "1 147 221  1 147 222"                     head.obs.csv                                                                    
 NI1605B-1                                CONTINUOUS  HEAD                           ALL TIMES    "1 164 287  1 164 288"                     head.obs.csv                                                                    
 NI1606-1                                 CONTINUOUS  HEAD                           ALL TIMES    "1 135 199  1 135 200"                     head.obs.csv                                                                    
 NI1607-1                                 CONTINUOUS  HEAD                           ALL TIMES    "1 173 223  1 173 224"                     head.obs.csv                                                                    
 NI1608-1                                 CONTINUOUS  HEAD                           ALL TIMES    "1 176 217  1 176 218"                     head.obs.csv                                                                    
 NI1609-2                                 CONTINUOUS  HEAD                           ALL TIMES    "1 176 221  1 176 222"                     head.obs.csv                                                                    
 NI1610-2                                 CONTINUOUS  HEAD                           ALL TIMES    "1 174 222  1 174 223"                     head.obs.csv                                                                    
 NI1611-1                                 CONTINUOUS  HEAD                           ALL TIMES    "1 174 226  1 174 227"                     head.obs.csv                                                                    
 NI1612-1                                 CONTINUOUS  HEAD                           ALL TIMES    "1 164 214  1 164 215"                     head.obs.csv                                                                    
 NI1613-1                                 CONTINUOUS  HEAD                           ALL TIMES    "1 148 221  1 148 222"                     head.obs.csv                                                                    
 NI1703-1                                 CONTINUOUS  HEAD                           ALL TIMES    "1 168 227  1 168 228"                     head.obs.csv                                                                    
 NI1704-1                                 CONTINUOUS  HEAD                           ALL TIMES    "1 83 167  1 83 168"                       head.obs.csv                                                                    
 NI1705-1                                 CONTINUOUS  HEAD                           ALL TIMES    "1 94 173  1 94 174"                       head.obs.csv                                                                    
 NI1801-1                                 CONTINUOUS  HEAD                           ALL TIMES    "1 90 166  1 90 167"                       head.obs.csv                                                                    
 NI1802-1                                 CONTINUOUS  HEAD                           ALL TIMES    "1 92 168  1 92 169"                       head.obs.csv                                                                    
 NI1803-1                                 CONTINUOUS  HEAD                           ALL TIMES    "1 95 169  1 95 170"                       head.obs.csv                                                                    
 NI1804-1                                 CONTINUOUS  HEAD                           ALL TIMES    "1 98 171  1 98 172"                       head.obs.csv                                                                    
 B9-4                                     CONTINUOUS  HEAD                           ALL TIMES    "2 44 13  2 44 14"                         head.obs.csv                                                                    
 B10-4                                    CONTINUOUS  HEAD                           ALL TIMES    "2 98 69  2 98 70"                         head.obs.csv                                                                    
 B13-1                                    CONTINUOUS  HEAD                           ALL TIMES    "2 112 331  2 112 332"                     head.obs.csv                                                                    
 B14-1                                    CONTINUOUS  HEAD                           ALL TIMES    "2 118 332  2 118 333"                     head.obs.csv                                                                    
 B15-1                                    CONTINUOUS  HEAD                           ALL TIMES    "2 108 347  2 108 348"                     head.obs.csv                                                                    
 B20-1                                    CONTINUOUS  HEAD                           ALL TIMES    "2 102 328  2 102 329"                     head.obs.csv                                                                    
 B21-1                                    CONTINUOUS  HEAD                           ALL TIMES    "2 109 327  2 109 328"                     head.obs.csv                                                                    
 B2-2                                     CONTINUOUS  HEAD                           ALL TIMES    "2 126 261  2 126 262"                     head.obs.csv                                                                    
 B22-2                                    CONTINUOUS  HEAD                           ALL TIMES    "2 111 321  2 111 322"                     head.obs.csv                                                                    
 B26                                      CONTINUOUS  HEAD                           ALL TIMES    "2 109 334  2 109 335"                     head.obs.csv                                                                    
 B35                                      CONTINUOUS  HEAD                           ALL TIMES    "2 161 271  2 161 272"                     head.obs.csv                                                                    
 B36                                      CONTINUOUS  HEAD                           ALL TIMES    "2 164 267  2 164 268"                     head.obs.csv                                                                    
 B37                                      CONTINUOUS  HEAD                           ALL TIMES    "2 167 274  2 167 275"                     head.obs.csv                                                                    
 B8-1                                     CONTINUOUS  HEAD                           ALL TIMES    "2 146 83  2 146 84"                       head.obs.csv                                                                    
 KB4-4                                    CONTINUOUS  HEAD                           ALL TIMES    "2 99 178  2 99 179"                       head.obs.csv                                                                    
 NI1301-2                                 CONTINUOUS  HEAD                           ALL TIMES    "2 112 329  2 112 330"                     head.obs.csv                                                                    
 NI1302-2                                 CONTINUOUS  HEAD                           ALL TIMES    "2 109 325  2 109 326"                     head.obs.csv                                                                    
 NI1401-1                                 CONTINUOUS  HEAD                           ALL TIMES    "2 114 322  2 114 323"                     head.obs.csv                                                                    
 NI1402B-1                                CONTINUOUS  HEAD                           ALL TIMES    "2 108 326  2 108 327"                     head.obs.csv                                                                    
 NI1404-1                                 CONTINUOUS  HEAD                           ALL TIMES    "2 110 330  2 110 331"                     head.obs.csv                                                                    
 NI1407-2                                 CONTINUOUS  HEAD                           ALL TIMES    "2 112 311  2 112 312"                     head.obs.csv                                                                    
 NI1408-2                                 CONTINUOUS  HEAD                           ALL TIMES    "2 106 311  2 106 312"                     head.obs.csv                                                                    
 NI1409-2                                 CONTINUOUS  HEAD                           ALL TIMES    "2 122 311  2 122 312"                     head.obs.csv                                                                    
 NI1410-2                                 CONTINUOUS  HEAD                           ALL TIMES    "2 121 321  2 121 322"                     head.obs.csv                                                                    
 NI1411-2                                 CONTINUOUS  HEAD                           ALL TIMES    "2 116 327  2 116 328"                     head.obs.csv                                                                    
 NI1413-2                                 CONTINUOUS  HEAD                           ALL TIMES    "2 169 268  2 169 269"                     head.obs.csv                                                                    
 NI1501-2                                 CONTINUOUS  HEAD                           ALL TIMES    "2 102 270  2 102 271"                     head.obs.csv                                                                    
 NI1505-2                                 CONTINUOUS  HEAD                           ALL TIMES    "2 101 327  2 101 328"                     head.obs.csv                                                                    
 NI1506-2                                 CONTINUOUS  HEAD                           ALL TIMES    "2 105 325  2 105 326"                     head.obs.csv                                                                    
 NI1507-2                                 CONTINUOUS  HEAD                           ALL TIMES    "2 94 316  2 94 317"                       head.obs.csv                                                                    
 NI1601-2                                 CONTINUOUS  HEAD                           ALL TIMES    "2 160 245  2 160 246"                     head.obs.csv                                                                    
 NI1604-1                                 CONTINUOUS  HEAD                           ALL TIMES    "2 167 272  2 167 273"                     head.obs.csv                                                                    
 NI1606-2                                 CONTINUOUS  HEAD                           ALL TIMES    "2 135 199  2 135 200"                     head.obs.csv                                                                    
 NI1607-2                                 CONTINUOUS  HEAD                           ALL TIMES    "2 173 223  2 173 224"                     head.obs.csv                                                                    
 NI1608-2                                 CONTINUOUS  HEAD                           ALL TIMES    "2 176 217  2 176 218"                     head.obs.csv                                                                    
 NI1703-2                                 CONTINUOUS  HEAD                           ALL TIMES    "2 168 227  2 168 228"                     head.obs.csv                                                                    
 NI1706-1                                 CONTINUOUS  HEAD                           ALL TIMES    "2 113 179  2 113 180"                     head.obs.csv                                                                    
 NI1709-1                                 CONTINUOUS  HEAD                           ALL TIMES    "2 159 301  2 159 302"                     head.obs.csv                                                                    
 NI1712-1                                 CONTINUOUS  HEAD                           ALL TIMES    "2 175 235  2 175 236"                     head.obs.csv                                                                    
 NI1801-3                                 CONTINUOUS  HEAD                           ALL TIMES    "2 90 166  2 90 167"                       head.obs.csv                                                                    
 NI1803-3                                 CONTINUOUS  HEAD                           ALL TIMES    "2 95 169  2 95 170"                       head.obs.csv                                                                    
 NI1804-3                                 CONTINUOUS  HEAD                           ALL TIMES    "2 98 171  2 98 172"                       head.obs.csv                                                                    
 B9-5                                     CONTINUOUS  HEAD                           ALL TIMES    "3 44 13  3 44 14"                         head.obs.csv                                                                    
 B10-5                                    CONTINUOUS  HEAD                           ALL TIMES    "3 98 69  3 98 70"                         head.obs.csv                                                                    
 B16-2                                    CONTINUOUS  HEAD                           ALL TIMES    "3 140 265  3 140 266"                     head.obs.csv                                                                    
 B19-4                                    CONTINUOUS  HEAD                           ALL TIMES    "3 166 283  3 166 284"                     head.obs.csv                                                                    
 B21-3                                    CONTINUOUS  HEAD                           ALL TIMES    "3 109 327  3 109 328"                     head.obs.csv                                                                    
 B22-4                                    CONTINUOUS  HEAD                           ALL TIMES    "3 111 321  3 111 322"                     head.obs.csv                                                                    
 B2-3                                     CONTINUOUS  HEAD                           ALL TIMES    "3 126 261  3 126 262"                     head.obs.csv                                                                    
 B30                                      CONTINUOUS  HEAD                           ALL TIMES    "3 100 264  3 100 265"                     head.obs.csv                                                                    
 B34                                      CONTINUOUS  HEAD                           ALL TIMES    "3 159 264  3 159 265"                     head.obs.csv                                                                    
 B4                                       CONTINUOUS  HEAD                           ALL TIMES    "3 80 370  3 80 371"                       head.obs.csv                                                                    
 B8-2                                     CONTINUOUS  HEAD                           ALL TIMES    "3 146 83  3 146 84"                       head.obs.csv                                                                    
 NI1301-3                                 CONTINUOUS  HEAD                           ALL TIMES    "3 112 329  3 112 330"                     head.obs.csv                                                                    
 NI1302-3                                 CONTINUOUS  HEAD                           ALL TIMES    "3 109 325  3 109 326"                     head.obs.csv                                                                    
 NI1401-2                                 CONTINUOUS  HEAD                           ALL TIMES    "3 114 322  3 114 323"                     head.obs.csv                                                                    
 NI1402B-2                                CONTINUOUS  HEAD                           ALL TIMES    "3 108 326  3 108 327"                     head.obs.csv                                                                    
 NI1403-2                                 CONTINUOUS  HEAD                           ALL TIMES    "3 165 282  3 165 283"                     head.obs.csv                                                                    
 NI1404-2                                 CONTINUOUS  HEAD                           ALL TIMES    "3 110 330  3 110 331"                     head.obs.csv                                                                    
 NI1405-2                                 CONTINUOUS  HEAD                           ALL TIMES    "3 157 290  3 157 291"                     head.obs.csv                                                                    
 NI1406-1                                 CONTINUOUS  HEAD                           ALL TIMES    "3 109 323  3 109 324"                     head.obs.csv                                                                    
 NI1407-3                                 CONTINUOUS  HEAD                           ALL TIMES    "3 112 311  3 112 312"                     head.obs.csv                                                                    
 NI1408-3                                 CONTINUOUS  HEAD                           ALL TIMES    "3 106 311  3 106 312"                     head.obs.csv                                                                    
 NI1409-3                                 CONTINUOUS  HEAD                           ALL TIMES    "3 122 311  3 122 312"                     head.obs.csv                                                                    
 NI1410-3                                 CONTINUOUS  HEAD                           ALL TIMES    "3 121 321  3 121 322"                     head.obs.csv                                                                    
 NI1411-3                                 CONTINUOUS  HEAD                           ALL TIMES    "3 116 327  3 116 328"                     head.obs.csv                                                                    
 NI1412-3                                 CONTINUOUS  HEAD                           ALL TIMES    "3 165 278  3 165 279"                     head.obs.csv                                                                    
 NI1413-3                                 CONTINUOUS  HEAD                           ALL TIMES    "3 169 268  3 169 269"                     head.obs.csv                                                                    
 NI1501-3                                 CONTINUOUS  HEAD                           ALL TIMES    "3 102 270  3 102 271"                     head.obs.csv                                                                    
 NI1502-3                                 CONTINUOUS  HEAD                           ALL TIMES    "3 92 336  3 92 337"                       head.obs.csv                                                                    
 NI1503-3                                 CONTINUOUS  HEAD                           ALL TIMES    "3 94 339  3 94 340"                       head.obs.csv                                                                    
 NI1504-3                                 CONTINUOUS  HEAD                           ALL TIMES    "3 99 336  3 99 337"                       head.obs.csv                                                                    
 NI1505-3                                 CONTINUOUS  HEAD                           ALL TIMES    "3 101 327  3 101 328"                     head.obs.csv                                                                    
 NI1506-3                                 CONTINUOUS  HEAD                           ALL TIMES    "3 105 325  3 105 326"                     head.obs.csv                                                                    
 NI1507-3                                 CONTINUOUS  HEAD                           ALL TIMES    "3 94 316  3 94 317"                       head.obs.csv                                                                    
 NI1601-3                                 CONTINUOUS  HEAD                           ALL TIMES    "3 160 245  3 160 246"                     head.obs.csv                                                                    
 NI1602-2                                 CONTINUOUS  HEAD                           ALL TIMES    "3 151 210  3 151 211"                     head.obs.csv                                                                    
 NI1603-2                                 CONTINUOUS  HEAD                           ALL TIMES    "3 147 221  3 147 222"                     head.obs.csv                                                                    
 NI1604-3                                 CONTINUOUS  HEAD                           ALL TIMES    "3 167 272  3 167 273"                     head.obs.csv                                                                    
 NI1605B-3                                CONTINUOUS  HEAD                           ALL TIMES    "3 164 287  3 164 288"                     head.obs.csv                                                                    
 NI1606-3                                 CONTINUOUS  HEAD                           ALL TIMES    "3 135 199  3 135 200"                     head.obs.csv                                                                    
 NI1607-3                                 CONTINUOUS  HEAD                           ALL TIMES    "3 173 223  3 173 224"                     head.obs.csv                                                                    
 NI1608-3                                 CONTINUOUS  HEAD                           ALL TIMES    "3 176 217  3 176 218"                     head.obs.csv                                                                    
 NI1609-3                                 CONTINUOUS  HEAD                           ALL TIMES    "3 176 221  3 176 222"                     head.obs.csv                                                                    
 NI1612-2                                 CONTINUOUS  HEAD                           ALL TIMES    "3 164 214  3 164 215"                     head.obs.csv                                                                    
 NI1701-1                                 CONTINUOUS  HEAD                           ALL TIMES    "3 161 231  3 161 232"                     head.obs.csv                                                                    
 NI1702-1                                 CONTINUOUS  HEAD                           ALL TIMES    "3 156 232  3 156 233"                     head.obs.csv                                                                    
 NI1704-2                                 CONTINUOUS  HEAD                           ALL TIMES    "3 83 167  3 83 168"                       head.obs.csv                                                                    
 NI1705-2                                 CONTINUOUS  HEAD                           ALL TIMES    "3 94 173  3 94 174"                       head.obs.csv                                                                    
 NI1706-2                                 CONTINUOUS  HEAD                           ALL TIMES    "3 113 179  3 113 180"                     head.obs.csv                                                                    
 NI1707-1                                 CONTINUOUS  HEAD                           ALL TIMES    "3 104 172  3 104 173"                     head.obs.csv                                                                    
 NI1708-1                                 CONTINUOUS  HEAD                           ALL TIMES    "3 169 262  3 169 263"                     head.obs.csv                                                                    
 NI1711-1                                 CONTINUOUS  HEAD                           ALL TIMES    "3 174 272  3 174 273"                     head.obs.csv                                                                    
 ----------------------------------------------------------------------------------------------------------------------------------------------------------------------------------------------------------------------------


    BINARY GRID INFORMATION WILL BE WRITTEN TO:
      UNIT NUMBER: 1050
      FILE NAME: C:\Users\nat12nho\Documents\Development\repos\hagfors_gwm\hagfors_ss_template\hagfors.dis.grb

 OPENED C:\Users\nat12nho\Documents\Development\repos\hagfors_gwm\hagfors_ss_template\hagfors.dis.grb
 FILE TYPE:DATA(BINARY)   UNIT 1050   STATUS:REPLACE             
 FORMAT:UNFORMATTED            ACCESS:STREAM              
 ACTION:READWRITE           

      THE LAST TIME STEP WILL BE PRINTED
      THE LAST TIME STEP WILL BE PRINTED
 # File generated by Flopy version 3.3.3 on 06/05/2021 at 19:37:50.

 PROCESSING OC OPTIONS

    BUDGET INFORMATION WILL BE WRITTEN TO:
      UNIT NUMBER: 1051
      FILE NAME: hagfors.cbc

 OPENED hagfors.cbc
 FILE TYPE:DATA(BINARY)   UNIT 1051   STATUS:REPLACE             
 FORMAT:UNFORMATTED            ACCESS:STREAM              
 ACTION:READWRITE           

    HEAD INFORMATION WILL BE WRITTEN TO:
      UNIT NUMBER: 1052
      FILE NAME: hagfors.bhd

 OPENED hagfors.bhd
 FILE TYPE:DATA(BINARY)   UNIT 1052   STATUS:REPLACE             
 FORMAT:UNFORMATTED            ACCESS:STREAM              
 ACTION:READWRITE           

 END OF OC OPTIONS

The observation utility is active for "SFR-1"
 # File generated by Flopy version 3.3.3 on 06/05/2021 at 19:37:50.

Processing observation options:

Text output number of digits of precision set to: 10
The PRINT_INPUT option has been specified.


 OBSERVATIONS READ FROM FILE "hagfors.sfr.obs"
 ----------------------------------------------------------------------------------------------------------------------------------------------------------------------------------------------------------------------------
 NAME                                     TYPE                                       TIME         LOCATION DATA                              OUTPUT FILENAME                                                                 
 ----------------------------------------------------------------------------------------------------------------------------------------------------------------------------------------------------------------------------
 NI15-O1-STG                              CONTINUOUS  STAGE                          ALL TIMES    "264"                                      sfr.obs.csv                                                                     
 NI15-O44-STG                             CONTINUOUS  STAGE                          ALL TIMES    "280"                                      sfr.obs.csv                                                                     
 NI15-O46-STG                             CONTINUOUS  STAGE                          ALL TIMES    "376"                                      sfr.obs.csv                                                                     
 NI15-O47-STG                             CONTINUOUS  STAGE                          ALL TIMES    "415"                                      sfr.obs.csv                                                                     
 NI15-O48-STG                             CONTINUOUS  STAGE                          ALL TIMES    "522"                                      sfr.obs.csv                                                                     
 GAGE-1                                   CONTINUOUS  INFLOW                         ALL TIMES    "620"                                      sfr.obs.csv                                                                     
 ----------------------------------------------------------------------------------------------------------------------------------------------------------------------------------------------------------------------------



 SFR PACKAGE (SFR-1) STATIC REACH DATA
 ---------------------------------------------------------------------------------------------------------------------------------------
                                                                                                                              UPSTREAM  
   NUMBER   CELLID                  LENGTH       WIDTH        SLOPE         TOP       THICKNESS        HK       ROUGHNESS     FRACTION  
 ---------------------------------------------------------------------------------------------------------------------------------------
     1      (1,177,380)           1.7689       2.0000       1.00000E-03  142.64       1.0000       86.400       3.00000E-02  1.0000     
     2      (1,177,379)           2.2732       2.0000       1.00000E-03  142.59       1.0000       86.400       3.00000E-02  1.0000     
     3      (1,177,378)           6.90870E-02  2.0000       1.00000E-03  142.55       1.0000       86.400       3.00000E-02  1.0000     
     4      (1,176,378)           2.2041       2.0000       1.00000E-03  142.51       1.0000       86.400       3.00000E-02  1.0000     
     5      (1,176,377)           2.0630       2.0000       1.00000E-03  142.47       1.0000       86.400       3.00000E-02  1.0000     
     6      (1,175,377)           0.18910      2.0000       1.00000E-03  142.46       1.0000       86.400       3.00000E-02  1.0000     
     7      (1,175,376)           2.2168       2.0000       1.00000E-03  142.45       1.0000       86.400       3.00000E-02  1.0000     
     8      (1,175,375)           2.2168       2.0000       1.00000E-03  142.45       1.0000       86.400       3.00000E-02  1.0000     
     9      (1,175,374)           1.41796E-02  2.0000       1.00000E-03  142.45       1.0000       86.400       3.00000E-02  1.0000     
     10     (1,174,374)           2.2026       2.0000       1.00000E-03  142.45       1.0000       86.400       3.00000E-02  1.0000     
     11     (1,174,373)           2.2168       2.0000       1.00000E-03  142.45       1.0000       86.400       3.00000E-02  1.0000     
     12     (1,174,372)           0.21746      2.0000       1.00000E-03  142.45       1.0000       86.400       3.00000E-02  1.0000     
     13     (1,173,372)           2.0059       2.0000       1.00000E-03  142.45       1.0000       86.400       3.00000E-02  1.0000     
     14     (1,173,371)           2.2475       2.0000       1.00000E-03  142.45       1.0000       86.400       3.00000E-02  1.0000     
     15     (1,172,371)           6.18034E-02  2.0000       1.00000E-03  142.45       1.0000       86.400       3.00000E-02  1.0000     
     16     (1,172,370)           2.3093       2.0000       1.00000E-03  142.45       1.0000       86.400       3.00000E-02  1.0000     
     17     (1,172,369)           1.6293       2.0000       1.00000E-03  142.45       1.0000       86.400       3.00000E-02  1.0000     
     18     (1,171,369)           0.68006      2.0000       1.00000E-03  142.44       1.0000       86.400       3.00000E-02  1.0000     
     19     (1,171,368)           2.3093       2.0000       1.00000E-03  142.36       1.0000       86.400       3.00000E-02  1.0000     
     20     (1,171,367)           1.2798       2.0000       1.00000E-03  142.34       1.0000       86.400       3.00000E-02  1.0000     
     21     (1,170,367)           0.89549      2.0000       1.00000E-03  142.34       1.0000       86.400       3.00000E-02  1.0000     
     22     (1,170,366)           2.1715       2.0000       1.00000E-03  142.34       1.0000       86.400       3.00000E-02  1.0000     
     23     (1,170,365)           2.1089       2.0000       1.00000E-03  142.34       1.0000       86.400       3.00000E-02  1.0000     
     24     (1,170,364)           0.48668      2.0000       1.00000E-03  142.34       1.0000       86.400       3.00000E-02  1.0000     
     25     (1,169,364)           2.4254       2.0000       1.00000E-03  142.34       1.0000       86.400       3.00000E-02  1.0000     
     26     (1,169,363)           0.16288      2.0000       1.00000E-03  142.34       1.0000       86.400       3.00000E-02  1.0000     
     27     (1,168,363)           2.2898       2.0000       1.00000E-03  142.34       1.0000       86.400       3.00000E-02  1.0000     
     28     (1,167,363)           1.8549       2.0000       1.00000E-03  142.34       1.0000       86.400       3.00000E-02  1.0000     
     29     (1,167,362)           0.36472      2.0000       1.00000E-03  142.34       1.0000       86.400       3.00000E-02  1.0000     
     30     (1,166,362)           2.2197       2.0000       1.00000E-03  142.34       1.0000       86.400       3.00000E-02  1.0000     
     31     (1,165,362)           2.0268       2.0000       1.00000E-03  142.34       1.0000       86.400       3.00000E-02  1.0000     
     32     (1,165,361)           0.19290      2.0000       1.00000E-03  142.34       1.0000       86.400       3.00000E-02  1.0000     
     33     (1,164,361)           2.8008       2.0000       1.00000E-03  142.26       1.0000       86.400       3.00000E-02  1.0000     
     34     (1,163,361)           0.11425      2.0000       1.00000E-03  142.19       1.0000       86.400       3.00000E-02  1.0000     
     35     (1,163,360)           2.4162       2.0000       1.00000E-03  142.17       1.0000       86.400       3.00000E-02  1.0000     
     36     (1,163,359)           1.0340       2.0000       1.00000E-03  142.17       1.0000       86.400       3.00000E-02  1.0000     
     37     (1,162,359)           1.3523       2.0000       1.00000E-03  142.16       1.0000       86.400       3.00000E-02  1.0000     
     38     (1,162,358)           2.0803       2.0000       1.00000E-03  142.16       1.0000       86.400       3.00000E-02  1.0000     
     39     (1,162,357)           0.11449      2.0000       1.00000E-03  142.16       1.0000       86.400       3.00000E-02  1.0000     
     40     (1,163,357)           1.9658       2.0000       1.00000E-03  142.16       1.0000       86.400       3.00000E-02  1.0000     
     41     (1,163,356)           2.0803       2.0000       1.00000E-03  142.16       1.0000       86.400       3.00000E-02  1.0000     
     42     (1,163,355)           2.0803       2.0000       1.00000E-03  142.16       1.0000       86.400       3.00000E-02  1.0000     
     43     (1,163,354)           1.1410       2.0000       1.00000E-03  142.16       1.0000       86.400       3.00000E-02  1.0000     
     44     (1,164,354)           0.93616      2.0000       1.00000E-03  142.16       1.0000       86.400       3.00000E-02  1.0000     
     45     (1,164,353)           2.0014       2.0000       1.00000E-03  142.13       1.0000       86.400       3.00000E-02  1.0000     
     46     (1,164,352)           2.0014       2.0000       1.00000E-03  142.07       1.0000       86.400       3.00000E-02  1.0000     
     47     (1,164,351)           0.65957      2.0000       1.00000E-03  142.06       1.0000       86.400       3.00000E-02  1.0000     
     48     (1,163,351)           1.3692       2.0000       1.00000E-03  142.06       1.0000       86.400       3.00000E-02  1.0000     
     49     (1,163,350)           2.0322       2.0000       1.00000E-03  142.06       1.0000       86.400       3.00000E-02  1.0000     
     50     (1,163,349)           2.0322       2.0000       1.00000E-03  142.05       1.0000       86.400       3.00000E-02  1.0000     
     51     (1,163,348)           2.0390       2.0000       1.00000E-03  142.05       1.0000       86.400       3.00000E-02  1.0000     
     52     (1,163,347)           2.0630       2.0000       1.00000E-03  142.05       1.0000       86.400       3.00000E-02  1.0000     
     53     (1,163,346)           0.56190      2.0000       1.00000E-03  142.05       1.0000       86.400       3.00000E-02  1.0000     
     54     (1,162,346)           1.5011       2.0000       1.00000E-03  142.05       1.0000       86.400       3.00000E-02  1.0000     
     55     (1,162,345)           2.0876       2.0000       1.00000E-03  142.05       1.0000       86.400       3.00000E-02  1.0000     
     56     (1,162,344)           2.1073       2.0000       1.00000E-03  142.05       1.0000       86.400       3.00000E-02  1.0000     
     57     (1,162,343)           1.1885       2.0000       1.00000E-03  142.05       1.0000       86.400       3.00000E-02  1.0000     
     58     (1,161,343)           0.91877      2.0000       1.00000E-03  142.05       1.0000       86.400       3.00000E-02  1.0000     
     59     (1,161,342)           2.1073       2.0000       1.00000E-03  142.05       1.0000       86.400       3.00000E-02  1.0000     
     60     (1,161,341)           2.1073       2.0000       1.00000E-03  142.05       1.0000       86.400       3.00000E-02  1.0000     
     61     (1,161,340)           1.2149       2.0000       1.00000E-03  142.05       1.0000       86.400       3.00000E-02  1.0000     
     62     (1,160,340)           0.89240      2.0000       1.00000E-03  142.05       1.0000       86.400       3.00000E-02  1.0000     
     63     (1,160,339)           2.1073       2.0000       1.00000E-03  142.05       1.0000       86.400       3.00000E-02  1.0000     
     64     (1,160,338)           2.1037       2.0000       1.00000E-03  142.05       1.0000       86.400       3.00000E-02  1.0000     
     65     (1,160,337)           1.4997       2.0000       1.00000E-03  142.05       1.0000       86.400       3.00000E-02  1.0000     
     66     (1,159,337)           0.57678      2.0000       1.00000E-03  142.04       1.0000       86.400       3.00000E-02  1.0000     
     67     (1,159,336)           2.0631       2.0000       1.00000E-03  142.04       1.0000       86.400       3.00000E-02  1.0000     
     68     (1,159,335)           2.0080       2.0000       1.00000E-03  142.04       1.0000       86.400       3.00000E-02  1.0000     
     69     (1,159,334)           2.0080       2.0000       1.00000E-03  142.04       1.0000       86.400       3.00000E-02  1.0000     
     70     (1,159,333)           2.0080       2.0000       1.00000E-03  142.04       1.0000       86.400       3.00000E-02  1.0000     
     71     (1,159,332)           0.22060      2.0000       1.00000E-03  142.04       1.0000       86.400       3.00000E-02  1.0000     
     72     (1,159,332)           5.10816E-02  2.0000       1.00000E-03  142.04       1.0000       86.400       3.00000E-02  1.0000     
     73     (1,160,332)           1.7856       2.0000       1.00000E-03  142.04       1.0000       86.400       3.00000E-02  1.0000     
     74     (1,160,331)           2.0634       2.0000       1.00000E-03  142.04       1.0000       86.400       3.00000E-02  1.0000     
     75     (1,160,330)           2.0634       2.0000       1.00000E-03  142.04       1.0000       86.400       3.00000E-02  1.0000     
     76     (1,160,329)           2.0634       2.0000       1.00000E-03  142.04       1.0000       86.400       3.00000E-02  1.0000     
     77     (1,160,328)           0.15545      2.0000       1.00000E-03  142.04       1.0000       86.400       3.00000E-02  1.0000     
     78     (1,161,328)           1.9079       2.0000       1.00000E-03  142.04       1.0000       86.400       3.00000E-02  1.0000     
     79     (1,161,327)           2.0634       2.0000       1.00000E-03  142.04       1.0000       86.400       3.00000E-02  1.0000     
     80     (1,161,326)           2.0634       2.0000       1.00000E-03  142.04       1.0000       86.400       3.00000E-02  1.0000     
     81     (1,161,325)           2.0634       2.0000       1.00000E-03  142.04       1.0000       86.400       3.00000E-02  1.0000     
     82     (1,161,324)           3.31230E-02  2.0000       1.00000E-03  142.04       1.0000       86.400       3.00000E-02  1.0000     
     83     (1,162,324)           2.0303       2.0000       1.00000E-03  142.04       1.0000       86.400       3.00000E-02  1.0000     
     84     (1,162,323)           2.0634       2.0000       1.00000E-03  142.04       1.0000       86.400       3.00000E-02  1.0000     
     85     (1,162,322)           2.0634       2.0000       1.00000E-03  142.04       1.0000       86.400       3.00000E-02  1.0000     
     86     (1,162,321)           1.9742       2.0000       1.00000E-03  142.04       1.0000       86.400       3.00000E-02  1.0000     
     87     (1,163,321)           8.91994E-02  2.0000       1.00000E-03  142.04       1.0000       86.400       3.00000E-02  1.0000     
     88     (1,163,320)           2.0634       2.0000       1.00000E-03  142.04       1.0000       86.400       3.00000E-02  1.0000     
     89     (1,163,319)           2.0634       2.0000       1.00000E-03  142.04       1.0000       86.400       3.00000E-02  1.0000     
     90     (1,163,318)           2.0634       2.0000       1.00000E-03  142.04       1.0000       86.400       3.00000E-02  1.0000     
     91     (1,163,317)           1.8519       2.0000       1.00000E-03  142.04       1.0000       86.400       3.00000E-02  1.0000     
     92     (1,164,317)           0.21152      2.0000       1.00000E-03  142.04       1.0000       86.400       3.00000E-02  1.0000     
     93     (1,164,316)           2.0634       2.0000       1.00000E-03  142.04       1.0000       86.400       3.00000E-02  1.0000     
     94     (1,164,315)           2.0634       2.0000       1.00000E-03  142.04       1.0000       86.400       3.00000E-02  1.0000     
     95     (1,164,314)           2.0634       2.0000       1.00000E-03  142.04       1.0000       86.400       3.00000E-02  1.0000     
     96     (1,164,313)           1.7295       2.0000       1.00000E-03  142.04       1.0000       86.400       3.00000E-02  1.0000     
     97     (1,165,313)           0.33384      2.0000       1.00000E-03  142.04       1.0000       86.400       3.00000E-02  1.0000     
     98     (1,165,312)           2.0634       2.0000       1.00000E-03  141.94       1.0000       86.400       3.00000E-02  1.0000     
     99     (1,165,311)           2.0634       2.0000       1.00000E-03  141.69       1.0000       86.400       3.00000E-02  1.0000     
    100     (1,165,310)           2.0634       2.0000       1.00000E-03  141.65       1.0000       86.400       3.00000E-02  1.0000     
    101     (1,165,309)           1.6072       2.0000       1.00000E-03  141.17       1.0000       86.400       3.00000E-02  1.0000     
    102     (1,166,309)           0.45617      2.0000       1.00000E-03  141.17       1.0000       86.400       3.00000E-02  1.0000     
    103     (1,166,308)           2.0634       2.0000       1.00000E-03  141.17       1.0000       86.400       3.00000E-02  1.0000     
    104     (1,166,307)           2.0634       2.0000       1.00000E-03  141.10       1.0000       86.400       3.00000E-02  1.0000     
    105     (1,166,306)           2.0634       2.0000       1.00000E-03  140.72       1.0000       86.400       3.00000E-02  1.0000     
    106     (1,166,305)           1.4849       2.0000       1.00000E-03  140.70       1.0000       86.400       3.00000E-02  1.0000     
    107     (1,167,305)           0.57849      2.0000       1.00000E-03  140.69       1.0000       86.400       3.00000E-02  1.0000     
    108     (1,167,304)           2.0634       2.0000       1.00000E-03  140.56       1.0000       86.400       3.00000E-02  1.0000     
    109     (1,167,303)           2.0634       2.0000       1.00000E-03  140.33       1.0000       86.400       3.00000E-02  1.0000     
    110     (1,167,302)           0.57432      2.0000       1.00000E-03  140.14       1.0000       86.400       3.00000E-02  1.0000     
    111     (1,167,302)           1.4546       2.0000       1.00000E-03  140.14       1.0000       86.400       3.00000E-02  1.0000     
    112     (1,167,301)           2.0156       2.0000       1.00000E-03  139.86       1.0000       86.400       3.00000E-02  1.0000     
    113     (1,167,300)           1.1041       2.0000       1.00000E-03  139.81       1.0000       86.400       3.00000E-02  1.0000     
    114     (1,168,300)           0.96543      2.0000       1.00000E-03  139.57       1.0000       86.400       3.00000E-02  1.0000     
    115     (1,168,299)           2.0739       2.0000       1.00000E-03  139.55       1.0000       86.400       3.00000E-02  1.0000     
    116     (1,168,298)           2.1953       2.0000       1.00000E-03  139.55       1.0000       86.400       3.00000E-02  1.0000     
    117     (1,168,297)           0.62823      2.0000       1.00000E-03  139.54       1.0000       86.400       3.00000E-02  1.0000     
    118     (1,169,297)           1.8654       2.0000       1.00000E-03  139.41       1.0000       86.400       3.00000E-02  1.0000     
    119     (1,169,296)           1.4832       2.0000       1.00000E-03  139.41       1.0000       86.400       3.00000E-02  1.0000     
    120     (1,170,296)           1.0153       2.0000       1.00000E-03  139.36       1.0000       86.400       3.00000E-02  1.0000     
    121     (1,170,295)           2.2423       2.0000       1.00000E-03  139.27       1.0000       86.400       3.00000E-02  1.0000     
    122     (1,171,295)           0.30480      2.0000       1.00000E-03  139.20       1.0000       86.400       3.00000E-02  1.0000     
    123     (1,171,294)           2.5471       2.0000       1.00000E-03  139.05       1.0000       86.400       3.00000E-02  1.0000     
    124     (1,171,293)           0.37792      2.0000       1.00000E-03  139.01       1.0000       86.400       3.00000E-02  1.0000     
    125     (1,172,293)           2.1692       2.0000       1.00000E-03  138.92       1.0000       86.400       3.00000E-02  1.0000     
    126     (1,172,292)           1.0606       2.0000       1.00000E-03  138.90       1.0000       86.400       3.00000E-02  1.0000     
    127     (1,173,292)           1.4864       2.0000       1.00000E-03  138.82       1.0000       86.400       3.00000E-02  1.0000     
    128     (1,173,291)           1.7434       2.0000       1.00000E-03  138.82       1.0000       86.400       3.00000E-02  1.0000     
    129     (1,174,291)           0.80372      2.0000       1.00000E-03  138.74       1.0000       86.400       3.00000E-02  1.0000     
    130     (1,174,290)           2.3341       2.0000       1.00000E-03  138.74       1.0000       86.400       3.00000E-02  1.0000     
    131     (1,175,290)           0.30810      2.0000       1.00000E-03  138.69       1.0000       86.400       3.00000E-02  1.0000     
    132     (1,175,289)           2.5203       2.0000       1.00000E-03  138.69       1.0000       86.400       3.00000E-02  1.0000     
    133     (1,176,289)           0.30810      2.0000       1.00000E-03  138.58       1.0000       86.400       3.00000E-02  1.0000     
    134     (1,176,288)           2.4160       2.0000       1.00000E-03  138.58       1.0000       86.400       3.00000E-02  1.0000     
    135     (1,177,288)           0.56437      2.0000       1.00000E-03  138.51       1.0000       86.400       3.00000E-02  1.0000     
    136     (1,177,287)           2.0642       2.0000       1.00000E-03  138.51       1.0000       86.400       3.00000E-02  1.0000     
    137     (1,178,287)           1.1224       2.0000       1.00000E-03  138.45       1.0000       86.400       3.00000E-02  1.0000     
    138     (1,178,286)           1.3634       2.0000       1.00000E-03  138.45       1.0000       86.400       3.00000E-02  1.0000     
    139     (1,179,286)           2.0044       2.0000       1.00000E-03  138.36       1.0000       86.400       3.00000E-02  1.0000     
    140     (1,179,285)           0.48136      2.0000       1.00000E-03  138.35       1.0000       86.400       3.00000E-02  1.0000     
    141     (1,180,285)           2.4858       2.0000       1.00000E-03  138.29       1.0000       86.400       3.00000E-02  1.0000     
    142     (1,181,285)           0.40069      2.0000       1.00000E-03  138.23       1.0000       86.400       3.00000E-02  1.0000     
    143     (1,181,284)           2.0020       2.0000       1.00000E-03  138.22       1.0000       86.400       3.00000E-02  1.0000     
    144     (1,182,284)           2.0964       2.0000       1.00000E-03  138.15       1.0000       86.400       3.00000E-02  1.0000     
[...]
    610     (1,40,107)            5774.3      -5775.0       0.66088      0.0000       0.0000       0.0000       0.0000       0.0000       0.0000       0.0000       0.0000     
    611     (1,39,107)            5775.0      -5775.4       0.40413      0.0000       0.0000       0.0000       0.0000       0.0000       0.0000       0.0000       0.0000     
    612     (1,39,106)            5775.4      -5774.7      -0.70713      0.0000       0.0000       0.0000       0.0000       0.0000       0.0000       0.0000       0.0000     
    613     (1,39,105)            5774.7      -5772.7      -2.0176       0.0000       0.0000       0.0000       0.0000       0.0000       0.0000       0.0000       0.0000     
    614     (1,39,104)            5772.7      -5770.5      -2.1516       0.0000       0.0000       0.0000       0.0000       0.0000       0.0000       0.0000       0.0000     
    615     (1,38,104)            5770.5      -5767.8      -2.7512       0.0000       0.0000       0.0000       0.0000       0.0000       0.0000       0.0000       0.0000     
    616     (1,38,103)            5767.8      -5759.8      -7.9611       0.0000       0.0000       0.0000       0.0000       0.0000       0.0000       0.0000       0.0000     
    617     (1,38,102)            5759.8      -5749.6      -10.161       0.0000       0.0000       0.0000       0.0000       0.0000       0.0000       0.0000       0.0000     
    618     (1,38,101)            5749.6      -5737.2      -12.497       0.0000       0.0000       0.0000       0.0000       0.0000       0.0000       0.0000       0.0000     
    619     (1,37,101)            5737.2      -5735.7      -1.4442       0.0000       0.0000       0.0000       0.0000       0.0000       0.0000       0.0000       0.0000     
    620     (1,37,100)            5735.7      -5713.9      -21.848       0.0000       0.0000       0.0000       0.0000       0.0000       0.0000       0.0000       0.0000     
    621     (1,37,99)             5713.9      -5681.9      -31.984       0.0000       0.0000       0.0000       0.0000       0.0000       0.0000       0.0000       0.0000     
    622     (1,37,98)             5681.9      -5677.5      -4.4092       0.0000       0.0000       0.0000       0.0000       0.0000       0.0000       0.0000       0.0000     
    623     (1,36,98)             5677.5      -5672.4      -5.0847       0.0000       0.0000       0.0000       0.0000       0.0000       0.0000       0.0000       0.0000     
    624     (1,36,97)             5672.4      -5682.6       10.192       0.0000       0.0000       0.0000       0.0000       0.0000       0.0000       0.0000       0.0000     
    625     (1,35,97)             5682.6      -5717.1       34.500       0.0000       0.0000       0.0000       0.0000       0.0000       0.0000       0.0000       0.0000     
    626     (1,35,96)             5717.1      -5789.0       71.905       0.0000       0.0000       0.0000       0.0000       0.0000       0.0000       0.0000       0.0000     
    627     (1,35,95)             5789.0      -5823.9       34.904       0.0000       0.0000       0.0000       0.0000       0.0000       0.0000       0.0000       0.0000     
    628     (1,34,95)             5823.9      -5828.6       4.7441       0.0000       0.0000       0.0000       0.0000       0.0000       0.0000       0.0000       0.0000     
    629     (1,34,95)             5828.6      -5868.3       39.694       0.0000       0.0000       0.0000       0.0000       0.0000       0.0000       0.0000       0.0000     
    630     (1,34,94)             5868.3      -5919.5       51.164       0.0000       0.0000       0.0000       0.0000       0.0000       0.0000       0.0000       0.0000     
    631     (1,33,94)             5919.5      -5961.3       41.776       0.0000       0.0000       0.0000       0.0000       0.0000       0.0000       0.0000       0.0000     
    632     (1,33,93)             5961.3      -6009.1       47.796       0.0000       0.0000       0.0000       0.0000       0.0000       0.0000       0.0000       0.0000     
    633     (1,32,93)             6009.1      -6043.0       33.918       0.0000       0.0000       0.0000       0.0000       0.0000       0.0000       0.0000       0.0000     
    634     (1,32,92)             6043.0      -6089.3       46.327       0.0000       0.0000       0.0000       0.0000       0.0000       0.0000       0.0000       0.0000     
    635     (1,31,92)             6089.3      -6117.4       28.058       0.0000       0.0000       0.0000       0.0000       0.0000       0.0000       0.0000       0.0000     
    636     (1,31,91)             6117.4      -6163.1       45.727       0.0000       0.0000       0.0000       0.0000       0.0000       0.0000       0.0000       0.0000     
    637     (1,30,91)             6163.1      -6186.4       23.302       0.0000       0.0000       0.0000       0.0000       0.0000       0.0000       0.0000       0.0000     
    638     (1,30,90)             6186.4      -6231.9       45.499       0.0000       0.0000       0.0000       0.0000       0.0000       0.0000       0.0000       0.0000     
    639     (1,29,90)             6231.9      -6251.1       19.195       0.0000       0.0000       0.0000       0.0000       0.0000       0.0000       0.0000       0.0000     
    640     (1,29,89)             6251.1      -6296.4       45.367       0.0000       0.0000       0.0000       0.0000       0.0000       0.0000       0.0000       0.0000     
    641     (1,28,89)             6296.4      -6312.0       15.547       0.0000       0.0000       0.0000       0.0000       0.0000       0.0000       0.0000       0.0000     
    642     (1,28,88)             6312.0      -6357.4       45.386       0.0000       0.0000       0.0000       0.0000       0.0000       0.0000       0.0000       0.0000     
    643     (1,27,88)             6357.4      -6369.6       12.232       0.0000       0.0000       0.0000       0.0000       0.0000       0.0000       0.0000       0.0000     
    644     (1,27,87)             6369.6      -6415.1       45.472       0.0000       0.0000       0.0000       0.0000       0.0000       0.0000       0.0000       0.0000     
    645     (1,26,87)             6415.1      -6424.3       9.1717       0.0000       0.0000       0.0000       0.0000       0.0000       0.0000       0.0000       0.0000     
    646     (1,26,86)             6424.3      -6469.8       45.521       0.0000       0.0000       0.0000       0.0000       0.0000       0.0000       0.0000       0.0000     
    647     (1,25,86)             6469.8      -6476.1       6.3290       0.0000       0.0000       0.0000       0.0000       0.0000       0.0000       0.0000       0.0000     
    648     (1,25,85)             6476.1      -6521.7       45.588       0.0000       0.0000       0.0000       0.0000       0.0000       0.0000       0.0000       0.0000     
    649     (1,24,85)             6521.7      -6525.3       3.6578       0.0000       0.0000       0.0000       0.0000       0.0000       0.0000       0.0000       0.0000     
    650     (1,24,84)             6525.3      -6570.9       45.532       0.0000       0.0000       0.0000       0.0000       0.0000       0.0000       0.0000       0.0000     
    651     (1,23,84)             6570.9      -6572.0       1.1387       0.0000       0.0000       0.0000       0.0000       0.0000       0.0000       0.0000       0.0000     
    652     (1,23,83)             6572.0      -6616.2       44.198       0.0000       0.0000       0.0000       0.0000       0.0000       0.0000       0.0000       0.0000     
    653     (1,23,82)             6616.2      -6617.5       1.2901       0.0000       0.0000       0.0000       0.0000       0.0000       0.0000       0.0000       0.0000     
    654     (1,22,82)             6617.5      -6658.2       40.680       0.0000       0.0000       0.0000       0.0000       0.0000       0.0000       0.0000       0.0000     
    655     (1,22,81)             6658.2      -6661.7       3.4629       0.0000       0.0000       0.0000       0.0000       0.0000       0.0000       0.0000       0.0000     
    656     (1,21,81)             6661.7      -6704.5       42.819       0.0000       0.0000       0.0000       0.0000       0.0000       0.0000       0.0000       0.0000     
    657     (1,21,80)             6704.5      -6710.7       6.2440       0.0000       0.0000       0.0000       0.0000       0.0000       0.0000       0.0000       0.0000     
    658     (1,20,80)             6710.7      -6749.6       38.866       0.0000       0.0000       0.0000       0.0000       0.0000       0.0000       0.0000       0.0000     
    659     (1,20,79)             6749.6      -6757.8       8.2449       0.0000       0.0000       0.0000       0.0000       0.0000       0.0000       0.0000       0.0000     
    660     (1,19,79)             6757.8      -6793.4       35.604       0.0000       0.0000       0.0000       0.0000       0.0000       0.0000       0.0000       0.0000     
    661     (1,19,78)             6793.4      -6803.5       10.069       0.0000       0.0000       0.0000       0.0000       0.0000       0.0000       0.0000       0.0000     
    662     (1,18,78)             6803.5      -6836.1       32.580       0.0000       0.0000       0.0000       0.0000       0.0000       0.0000       0.0000       0.0000     
    663     (1,18,77)             6836.1      -6847.8       11.696       0.0000       0.0000       0.0000       0.0000       0.0000       0.0000       0.0000       0.0000     
    664     (1,17,77)             6847.8      -6877.5       29.683       0.0000       0.0000       0.0000       0.0000       0.0000       0.0000       0.0000       0.0000     
    665     (1,17,76)             6877.5      -6890.6       13.151       0.0000       0.0000       0.0000       0.0000       0.0000       0.0000       0.0000       0.0000     
    666     (1,16,76)             6890.6      -6917.6       26.968       0.0000       0.0000       0.0000       0.0000       0.0000       0.0000       0.0000       0.0000     
    667     (1,16,75)             6917.6      -6932.0       14.435       0.0000       0.0000       0.0000       0.0000       0.0000       0.0000       0.0000       0.0000     
    668     (1,15,75)             6932.0      -6956.5       24.442       0.0000       0.0000       0.0000       0.0000       0.0000       0.0000       0.0000       0.0000     
    669     (1,15,74)             6956.5      -6972.0       15.579       0.0000       0.0000       0.0000       0.0000       0.0000       0.0000       0.0000       0.0000     
    670     (1,14,74)             6972.0      -6994.1       22.072       0.0000       0.0000       0.0000       0.0000       0.0000       0.0000       0.0000       0.0000     
    671     (1,14,73)             6994.1      -7010.7       16.576       0.0000       0.0000       0.0000       0.0000       0.0000       0.0000       0.0000       0.0000     
    672     (1,13,73)             7010.7      -7030.4       19.723       0.0000       0.0000       0.0000       0.0000       0.0000       0.0000       0.0000       0.0000     
    673     (1,13,72)             7030.4      -7047.7       17.317       0.0000       0.0000       0.0000       0.0000       0.0000       0.0000       0.0000       0.0000     
    674     (1,12,72)             7047.7      -7065.0       17.315       0.0000       0.0000       0.0000       0.0000       0.0000       0.0000       0.0000       0.0000     
    675     (1,12,71)             7065.0      -7082.7       17.681       0.0000       0.0000       0.0000       0.0000       0.0000       0.0000       0.0000       0.0000     
    676     (1,11,71)             7082.7      -7097.5       14.745       0.0000       0.0000       0.0000       0.0000       0.0000       0.0000       0.0000       0.0000     
    677     (1,11,70)             7097.5      -7116.1       18.620       0.0000       0.0000       0.0000       0.0000       0.0000       0.0000       0.0000       0.0000     
    678     (1,10,70)             7116.1      -7126.2       10.169       0.0000       0.0000       0.0000       0.0000       0.0000       0.0000       0.0000       0.0000     
    679     (1,10,69)             7126.2      -7146.0       19.719       0.0000       0.0000       0.0000       0.0000       0.0000       0.0000       0.0000       0.0000     
    680     (1,9,69)              7146.0      -7151.2       5.2422       0.0000       0.0000       0.0000       0.0000       0.0000       0.0000       0.0000       0.0000     
    681     (1,9,68)              7151.2      -7168.4       17.145       0.0000       0.0000       0.0000       0.0000       0.0000       0.0000       0.0000       0.0000     
    682     (1,8,68)              7168.4      -7173.4       5.0231       0.0000       0.0000       0.0000       0.0000       0.0000       0.0000       0.0000       0.0000     
    683     (1,8,67)              7173.4      -7222.2       48.819       0.0000       0.0000       0.0000       0.0000       0.0000       0.0000       0.0000       0.0000     
    684     (1,8,66)              7222.2      -7224.9       2.7077       0.0000       0.0000       0.0000       0.0000       0.0000       0.0000       0.0000       0.0000     
    685     (1,7,66)              7224.9      -7278.0       53.047       0.0000       0.0000       0.0000       0.0000       0.0000       0.0000       0.0000       0.0000     
    686     (1,7,65)              7278.0      -7287.4       9.4023       0.0000       0.0000       0.0000       0.0000       0.0000       0.0000       0.0000       0.0000     
    687     (1,6,65)              7287.4      -7330.2       42.850       0.0000       0.0000       0.0000       0.0000       0.0000       0.0000       0.0000       0.0000     
    688     (1,6,64)              7330.2      -7344.1       13.932       0.0000       0.0000       0.0000       0.0000       0.0000       0.0000       0.0000       0.0000     
    689     (1,5,64)              7344.1      -7386.6       42.478       0.0000       0.0000       0.0000       0.0000       0.0000       0.0000       0.0000       0.0000     
    690     (1,5,63)              7386.6      -7407.9       21.288       0.0000       0.0000       0.0000       0.0000       0.0000       0.0000       0.0000       0.0000     
    691     (1,4,63)              7407.9      -7450.2       42.308       0.0000       0.0000       0.0000       0.0000       0.0000       0.0000       0.0000       0.0000     
    692     (1,4,62)              7450.2      -7481.1       30.896       0.0000       0.0000       0.0000       0.0000       0.0000       0.0000       0.0000       0.0000     
    693     (1,3,62)              7481.1      -7516.8       35.645       0.0000       0.0000       0.0000       0.0000       0.0000       0.0000       0.0000       0.0000     
    694     (1,3,61)              7516.8      -7554.0       37.198       0.0000       0.0000       0.0000       0.0000       0.0000       0.0000       0.0000       0.0000     
    695     (1,2,61)              7554.0      -7584.1       30.152       0.0000       0.0000       0.0000       0.0000       0.0000       0.0000       0.0000       0.0000     
    696     (1,2,60)              7584.1      -7629.4       45.248       0.0000       0.0000       0.0000       0.0000       0.0000       0.0000       0.0000       0.0000     
    697     (1,1,60)              7629.4      -7654.7       25.317       0.0000       0.0000       0.0000       0.0000       0.0000       0.0000       0.0000       0.0000     
    698     (1,1,59)              7654.7       0.0000       50.851       0.0000       0.0000       0.0000       0.0000      -7705.5       0.0000       0.0000       0.0000     
 ------------------------------------------------------------------------------------------------------------------------------------------------------------------------------




  SFR-1 BUDGET FOR ENTIRE MODEL AT END OF TIME STEP    1, STRESS PERIOD   1
  ------------------------------------------------------------------------------

     CUMULATIVE SFR-1      L**3       RATES FOR THIS TIME STEP      L**3/T
     ------------------                 ------------------------

           IN:                                      IN:
           ---                                      ---
                 GWF =        7890.6611                   GWF =        7890.6611
            RAINFALL =           0.0000              RAINFALL =           0.0000
         EVAPORATION =           0.0000           EVAPORATION =           0.0000
              RUNOFF =           0.0000                RUNOFF =           0.0000
          EXT-INFLOW =           0.0000            EXT-INFLOW =           0.0000
         EXT-OUTFLOW =           0.0000           EXT-OUTFLOW =           0.0000
             STORAGE =           0.0000               STORAGE =           0.0000

            TOTAL IN =        7890.6611              TOTAL IN =        7890.6611

          OUT:                                     OUT:
          ----                                     ----
                 GWF =         185.1426                   GWF =         185.1426
            RAINFALL =           0.0000              RAINFALL =           0.0000
         EVAPORATION =           0.0000           EVAPORATION =           0.0000
              RUNOFF =           0.0000                RUNOFF =           0.0000
          EXT-INFLOW =           0.0000            EXT-INFLOW =           0.0000
         EXT-OUTFLOW =        7705.5185           EXT-OUTFLOW =        7705.5185
             STORAGE =           0.0000               STORAGE =           0.0000

           TOTAL OUT =        7890.6611             TOTAL OUT =        7890.6611

            IN - OUT =           0.0000              IN - OUT =           0.0000

 PERCENT DISCREPANCY =           0.00     PERCENT DISCREPANCY =           0.00



  VOLUME BUDGET FOR ENTIRE MODEL AT END OF TIME STEP    1, STRESS PERIOD   1
  ---------------------------------------------------------------------------------------------------

     CUMULATIVE VOLUME      L**3       RATES FOR THIS TIME STEP      L**3/T          PACKAGE NAME    
     ------------------                 ------------------------                     ----------------

           IN:                                      IN:
           ---                                      ---
                 GHB =        7561.1836                   GHB =        7561.1836     GHB-1           
                 RCH =         143.3074                   RCH =         143.3074     RCH             
                 SFR =         185.1426                   SFR =         185.1426     SFR-1           

            TOTAL IN =        7889.6336              TOTAL IN =        7889.6336

          OUT:                                     OUT:
          ----                                     ----
                 GHB =           0.0000                   GHB =           0.0000     GHB-1           
                 RCH =           0.0000                   RCH =           0.0000     RCH             
                 SFR =        7890.6594                   SFR =        7890.6594     SFR-1           

           TOTAL OUT =        7890.6594             TOTAL OUT =        7890.6594

            IN - OUT =           1.0259              IN - OUT =           1.0259

 PERCENT DISCREPANCY =          -0.01     PERCENT DISCREPANCY =          -0.01




         TIME SUMMARY AT END OF TIME STEP    1 IN STRESS PERIOD    1
                    SECONDS     MINUTES      HOURS       DAYS        YEARS
                    -----------------------------------------------------------
   TIME STEP LENGTH  86400.      1440.0      24.000      1.0000     2.73785E-03
 STRESS PERIOD TIME  86400.      1440.0      24.000      1.0000     2.73785E-03
         TOTAL TIME  86400.      1440.0      24.000      1.0000     2.73785E-03


end timestep

