                                   MODFLOW 6
                U.S. GEOLOGICAL SURVEY MODULAR HYDROLOGIC MODEL
                            VERSION 6.2.1 02/18/2021

   MODFLOW 6 compiled Feb 18 2021 21:14:51 with IFORT compiler (ver. 19.10.3)

This software has been approved for release by the U.S. Geological 
Survey (USGS). Although the software has been subjected to rigorous 
review, the USGS reserves the right to update the software as needed 
pursuant to further analysis and review. No warranty, expressed or 
implied, is made by the USGS or the U.S. Government as to the 
functionality of the software and related material nor shall the 
fact of release constitute any such warranty. Furthermore, the 
software is released on condition that neither the USGS nor the U.S. 
Government shall be held liable for any damages resulting from its 
authorized or unauthorized use. Also refer to the USGS Water 
Resources Software User Rights Notice for complete use, copyright, 
and distribution information.


System command used to initiate simulation:
mf6.exe

MODFLOW was compiled using uniform precision.

Real Variables
  KIND: 8
  TINY (smallest non-zero value):    2.225074-308
  HUGE (largest value):    1.797693+308
  PRECISION: 15
  BIT SIZE: 64

Integer Variables
  KIND: 4
  HUGE (largest value): 2147483647
  BIT SIZE: 32

Long Integer Variables
  KIND: 8
  HUGE (largest value): 9223372036854775807
  BIT SIZE: 64

Logical Variables
  KIND: 4
  BIT SIZE: 32
 

 OPENED mfsim.nam
 FILE TYPE:NAM   UNIT 1001   STATUS:OLD                 
 FORMAT:FORMATTED              ACCESS:SEQUENTIAL          
 ACTION:READ                

 # File generated by Flopy version 3.3.3 on 06/05/2021 at 19:37:49.

 READING SIMULATION OPTIONS
 END OF SIMULATION OPTIONS

 READING SIMULATION TIMING

 OPENED hagfors.tdis
 FILE TYPE:TDIS   UNIT 1002   STATUS:OLD                 
 FORMAT:FORMATTED              ACCESS:SEQUENTIAL          
 ACTION:READ                


 TDIS -- TEMPORAL DISCRETIZATION PACKAGE,
 VERSION 1 : 11/13/2014 - INPUT READ FROM UNIT 1002
 # File generated by Flopy version 3.3.3 on 06/05/2021 at 19:37:49.
 PROCESSING TDIS OPTIONS
    SIMULATION TIME UNIT IS DAYS
    SIMULATION STARTING DATE AND TIME IS 17-06-2016                    
 END OF TDIS OPTIONS
 PROCESSING TDIS DIMENSIONS
    1 STRESS PERIOD(S) IN SIMULATION
 END OF TDIS DIMENSIONS
 PROCESSING TDIS PERIODDATA


 STRESS PERIOD     LENGTH       TIME STEPS     MULTIPLIER FOR DELT
 ----------------------------------------------------------------------------
        1         1.000000          1                    1.000
 END OF TDIS PERIODDATA
 END OF SIMULATION TIMING

 READING SIMULATION MODELS
    GWF6 model HAGFORS will be created as model 1
 END OF SIMULATION MODELS

 READING SIMULATION EXCHANGES
 END OF SIMULATION EXCHANGES

 READING SOLUTIONGROUP

 Creating solution: SLN_1           

 OPENED hagfors.ims
 FILE TYPE:IMS   UNIT 1013   STATUS:OLD                 
 FORMAT:FORMATTED              ACCESS:SEQUENTIAL          
 ACTION:READ                

 END OF SIMULATION SOLUTIONGROUP

 IMS -- ITERATIVE MODEL SOLUTION PACKAGE, VERSION 6, 4/28/2017
         INPUT READ FROM UNIT 1013
 # File generated by Flopy version 3.3.3 on 06/05/2021 at 19:37:49.

 PROCESSING IMS OPTIONS
 SIMPLE OPTION:
 DEFAULT SOLVER INPUT VALUES FOR FAST SOLUTIONS
 END OF IMS OPTIONS

 PROCESSING IMS NONLINEAR
 END OF IMS NONLINEAR DATA
 ***UNDER-RELAXATION WILL NOT BE USED***
 
 ***IMS LINEAR SOLVER WILL BE USED***

 IMSLINEAR -- UNSTRUCTURED LINEAR SOLUTION PACKAGE, VERSION 8, 04/28/2017

 PROCESSING LINEAR DATA
 END OF LINEAR DATA
 
 OUTER ITERATION CONVERGENCE CRITERION    (DVCLOSE) =    0.100000E-01
 MAXIMUM NUMBER OF OUTER ITERATIONS        (MXITER) = 750
 SOLVER PRINTOUT INDEX                     (IPRIMS) = 1
 NONLINEAR ITERATION METHOD            (NONLINMETH) = 0
 LINEAR SOLUTION METHOD                   (LINMETH) = 1

       SOLUTION BY THE BICONJUGATE-GRADIENT STABILIZED METHOD
 ------------------------------------------------------------------
 MAXIMUM OF 750 CALLS OF SOLUTION ROUTINE
 MAXIMUM OF 50 INTERNAL ITERATIONS PER CALL TO SOLUTION ROUTINE
 LINEAR ACCELERATION METHOD            = BCGS      
 MATRIX PRECONDITIONING TYPE           = INCOMPLETE LU       
 MATRIX SCALING APPROACH               = NO SCALING          
 MATRIX REORDERING APPROACH            = ORIGINAL ORDERING        
 NUMBER OF ORTHOGONALIZATIONS          = 0
 HEAD CHANGE CRITERION FOR CLOSURE     =    0.10000E-02
 RESIDUAL CHANGE CRITERION FOR CLOSURE =    0.10000E+00
 RESIDUAL CONVERGENCE OPTION           = 0
 RESIDUAL CONVERGENCE NORM             = INFINITY NORM   
 RELAXATION FACTOR                     =    0.00000E+00



1
                            STRESS PERIOD NO.    1, LENGTH =   1.000000    
                            -----------------------------------------------

                              NUMBER OF TIME STEPS =     1

                               MULTIPLIER FOR DELT =     1.000

                            INITIAL TIME STEP SIZE =   1.000000    

 OUTER ITERATION SUMMARY
 ----------------------------------------------------------------------------------------------------------
                                OUTER      INNER                    STEP   MAXIMUM CHANGE MODEL-(CELLID) OR
 OUTER ITERATION STEP       ITERATION  ITERATION  MAXIMUM CHANGE SUCCESS             MODEL-PACKAGE-(NUMBER)
 ----------------------------------------------------------------------------------------------------------
 Model                              1          1 -9.57637980E-07       *                  1_GWF-(1,190,375)
 Package                            1                 -217936.53                   1_GWF-SFR-1-(563)-inflow
 Model                              2          1 -3.14015733E-06       *                  1_GWF-(1,191,374)
 Package                            2            -2.00041131E-02                   1_GWF-SFR-1-(563)-inflow
 Model                              3          1 -1.41341394E-06       *                  1_GWF-(1,190,375)
 Package                            3                 0.36163189                   1_GWF-SFR-1-(563)-inflow
 Model                              4          1 -6.61380651E-06       *                  1_GWF-(1,191,374)
 Package                            4             8.30248813E-02                   1_GWF-SFR-1-(563)-inflow
 Model                              5          1 -1.95571221E-06       *                  1_GWF-(1,190,375)
 Package                            5                 0.99937331                   1_GWF-SFR-1-(563)-inflow
 Model                              6          1 -1.74151415E-06       *                  1_GWF-(1,191,374)
 Package                            6                 0.12011257                   1_GWF-SFR-1-(563)-inflow
 Model                              7          1 -1.25265169E-06       *                  1_GWF-(1,190,375)
 Package                            7            -8.39814480E-02                   1_GWF-SFR-1-(563)-inflow
 Model                              8          1 -5.93634130E-06       *                  1_GWF-(1,212,309)
 Package                            8                 0.14792268                   1_GWF-SFR-1-(563)-inflow
 Model                              9          1  3.17155664E-06       *                  1_GWF-(1,132,222)
 Package                            9                  2.0466959                   1_GWF-SFR-1-(563)-inflow
 Model                             10          1  1.69532021E-06       *                  1_GWF-(1,132,224)
 Package                           10                -0.61630319                   1_GWF-SFR-1-(547)-inflow
 Model                             11          1 -4.74322661E-07       *                  1_GWF-(1,100,178)
 Package                           11                -0.37448889                   1_GWF-SFR-1-(563)-inflow
 Model                             12          1 -3.43241538E-07       *                  1_GWF-(1,103,174)
 Package                           12                 0.11815880                   1_GWF-SFR-1-(563)-inflow
 Model                             13          1 -3.61864466E-07       *                  1_GWF-(1,105,170)
 Package                           13             7.26126124E-02                   1_GWF-SFR-1-(563)-inflow
 Model                             14          1 -3.46888356E-07       *                  1_GWF-(1,102,174)
 Package                           14            -1.58997915E-02                   1_GWF-SFR-1-(651)-inflow
 Model                             15          1 -3.60564769E-07       *                  1_GWF-(1,105,170)
 Package                           15                 0.10644382                   1_GWF-SFR-1-(563)-inflow
 Model                             16          1 -3.72751543E-07       *                  1_GWF-(1,191,374)
 Package                           16            -1.57608466E-02                   1_GWF-SFR-1-(651)-inflow
 Model                             17          1 -3.76697614E-07       *                  1_GWF-(1,190,375)
 Package                           17                 0.11929944                   1_GWF-SFR-1-(563)-inflow
 Model                             18          1 -5.16209695E-07       *                  1_GWF-(1,191,374)
 Package                           18            -1.85733900E-02                   1_GWF-SFR-1-(563)-inflow
 Model                             19          1 -5.02908790E-07       *                  1_GWF-(1,190,375)
 Package                           19                 0.13332585                   1_GWF-SFR-1-(563)-inflow
 Model                             20          1 -8.40570095E-07       *                  1_GWF-(1,191,374)
 Package                           20            -2.70023267E-02                   1_GWF-SFR-1-(563)-inflow
 Model                             21          1 -7.61771474E-07       *                  1_GWF-(1,190,375)
 Package                           21                 0.16089374                   1_GWF-SFR-1-(563)-inflow
 Model                             22          1 -1.80609965E-06       *                  1_GWF-(1,191,374)
 Package                           22            -3.58516558E-02                   1_GWF-SFR-1-(563)-inflow
 Model                             23          1 -1.30151699E-06       *                  1_GWF-(1,190,375)
 Package                           23                 0.27305844                   1_GWF-SFR-1-(563)-inflow
 Model                             24          1 -2.16580642E-05       *                  1_GWF-(3,217,299)
 Package                           24            -5.36615084E-02                   1_GWF-SFR-1-(563)-inflow
 Model                             25          1 -1.49336253E-06       *                  1_GWF-(1,190,375)
 Package                           25                  3.9017712                   1_GWF-SFR-1-(563)-inflow
 Model                             26          1 -2.29463126E-06       *                  1_GWF-(1,191,374)
 Package                           26                -0.20411960                   1_GWF-SFR-1-(563)-inflow
 Model                             27          1 -1.37638000E-06       *                  1_GWF-(1,190,375)
 Package                           27            -5.62064207E-02                   1_GWF-SFR-1-(563)-inflow
 Model                             28          1 -2.43928085E-06       *                  1_GWF-(1,191,374)
 Package                           28                 0.21135406                   1_GWF-SFR-1-(563)-inflow
 Model                             29          1  9.30130511E-07       *                     1_GWF-(1,1,63)
 Package                           29                 0.77136919                   1_GWF-SFR-1-(563)-inflow
 Model                             30          1 -1.68125126E-06       *                     1_GWF-(1,1,72)
 Package                           30            -7.36742735E-02                   1_GWF-SFR-1-(563)-inflow
 Model                             31          1  1.37356807E-06       *                     1_GWF-(1,1,72)
 Package                           31                -0.48252574                   1_GWF-SFR-1-(563)-inflow
 Model                             32          1 -8.34608301E-07       *                     1_GWF-(1,1,71)
 Package                           32                 0.43378389                   1_GWF-SFR-1-(563)-inflow
 Model                             33          1  6.56126190E-07       *                     1_GWF-(1,1,71)
 Package                           33             2.91554358E-02                   1_GWF-SFR-1-(382)-inflow
 Model                             34          1 -8.02810376E-07       *                  1_GWF-(1,191,374)
 Package                           34             9.74718529E-02                   1_GWF-SFR-1-(563)-inflow
 Model                             35          1 -6.96734105E-07       *                  1_GWF-(1,190,375)
 Package                           35             8.17274897E-02                   1_GWF-SFR-1-(563)-inflow
 Model                             36          1 -2.36884324E-06       *                  1_GWF-(1,191,374)
 Package                           36             1.81526881E-02                   1_GWF-SFR-1-(547)-inflow
 Model                             37          1 -1.41359649E-06       *                  1_GWF-(1,190,375)
 Package                           37                 0.28215419                   1_GWF-SFR-1-(563)-inflow
 Model                             38          1 -3.32558372E-06       *                  1_GWF-(1,191,374)
 Package                           38             2.01694069E-02                   1_GWF-SFR-1-(547)-inflow
 Model                             39          1 -1.61073959E-06       *                  1_GWF-(1,190,375)
 Package                           39                 0.36524402                   1_GWF-SFR-1-(563)-inflow
 Model                             40          1 -1.16505069E-06       *                  1_GWF-(1,191,374)
 Package                           40             5.86539283E-02                   1_GWF-SFR-1-(563)-inflow
 Model                             41          1 -8.47999985E-07       *                  1_GWF-(1,190,375)
 Package                           41                 0.13463142                   1_GWF-SFR-1-(563)-inflow
 Model                             42          1 -6.53006347E-06       *                  1_GWF-(3,218,297)
 Package                           42             2.47562923E-02                   1_GWF-SFR-1-(547)-inflow
 Model                             43          1  1.21891361E-06       *                   1_GWF-(1,18,110)
 Package                           43                  1.1810285                   1_GWF-SFR-1-(563)-inflow
 Model                             44          1  1.33215124E-06       *                     1_GWF-(1,2,63)
 Package                           44            -8.49872425E-02                   1_GWF-SFR-1-(651)-inflow
 Model                             45          1 -8.01061447E-07       *                     1_GWF-(1,1,62)
 Package                           45             6.14021684E-02                   1_GWF-SFR-1-(382)-inflow
 Model                             46          1 -5.33933246E-07       *                  1_GWF-(1,191,374)
 Package                           46                 0.10205312                   1_GWF-SFR-1-(563)-inflow
 Model                             47          1 -4.96245832E-07       *                  1_GWF-(1,190,375)
 Package                           47            -2.55308665E-02                   1_GWF-SFR-1-(651)-inflow
 Model                             48          1 -1.13595934E-06       *                  1_GWF-(1,191,374)
 Package                           48             8.47293058E-02                   1_GWF-SFR-1-(563)-inflow
 Model                             49          1 -9.05890374E-07       *                  1_GWF-(1,190,375)
 Package                           49             5.07471877E-02                   1_GWF-SFR-1-(547)-inflow
 Model                             50          1 -2.58792179E-05       *                  1_GWF-(3,217,301)
 Package                           50             6.75109479E-02                   1_GWF-SFR-1-(563)-inflow
 Model                             51          1 -2.40209110E-06       *                  1_GWF-(1,190,375)
 Package                           51                  3.8317167                   1_GWF-SFR-1-(563)-inflow
 Model                             52          1 -6.64295300E-07       *                    1_GWF-(1,8,112)
 Package                           52                 0.33977143                   1_GWF-SFR-1-(563)-inflow
 Model                             53          1 -8.57815905E-07       *                  1_GWF-(1,191,374)
 Package                           53                 0.12680654                   1_GWF-SFR-1-(563)-inflow
 Model                             54          1 -6.31532600E-07       *                  1_GWF-(1,190,375)
 Package                           54                 0.19963627                   1_GWF-SFR-1-(563)-inflow
 Model                             55          1 -2.84675338E-06       *                  1_GWF-(1,191,374)
 Package                           55             5.48828979E-03       *           1_GWF-SFR-1-(382)-inflow
 ----------------------------------------------------------------------------------------------------------


 55 CALLS TO NUMERICAL SOLUTION IN TIME STEP 1 STRESS PERIOD 1
 55 TOTAL ITERATIONS

 MEMORY MANAGER TOTAL STORAGE BY DATA TYPE, IN MEGABYTES
 -------------------------------
                    ALLOCATED   
 DATA TYPE           MEMORY     
 -------------------------------
 Character        6.36490000E-02
 Logical          4.40000000E-05
 Integer          47.725064     
 Real             104.13142     
 -------------------------------
 Total            151.92018     
 -------------------------------


 
 Run end date and time (yyyy/mm/dd hh:mm:ss): 2021/06/09 23:07:31
 Elapsed run time:  7.481 Seconds
 Normal termination of simulation.
