                                   MODFLOW 6
                U.S. GEOLOGICAL SURVEY MODULAR HYDROLOGIC MODEL
                          GROUNDWATER FLOW MODEL (GWF)
                            VERSION 6.2.1 02/18/2021

   MODFLOW 6 compiled Feb 18 2021 21:14:51 with IFORT compiler (ver. 19.10.3)

This software has been approved for release by the U.S. Geological 
Survey (USGS). Although the software has been subjected to rigorous 
review, the USGS reserves the right to update the software as needed 
pursuant to further analysis and review. No warranty, expressed or 
implied, is made by the USGS or the U.S. Government as to the 
functionality of the software and related material nor shall the 
fact of release constitute any such warranty. Furthermore, the 
software is released on condition that neither the USGS nor the U.S. 
Government shall be held liable for any damages resulting from its 
authorized or unauthorized use. Also refer to the USGS Water 
Resources Software User Rights Notice for complete use, copyright, 
and distribution information.


System command used to initiate simulation:
..\bins\win\mf6

MODFLOW was compiled using uniform precision.

Real Variables
  KIND: 8
  TINY (smallest non-zero value):    2.225074-308
  HUGE (largest value):    1.797693+308
  PRECISION: 15
  BIT SIZE: 64

Integer Variables
  KIND: 4
  HUGE (largest value): 2147483647
  BIT SIZE: 32

Long Integer Variables
  KIND: 8
  HUGE (largest value): 9223372036854775807
  BIT SIZE: 64

Logical Variables
  KIND: 4
  BIT SIZE: 32
 

 OPENED .\hagfors_1.obs
 FILE TYPE:OBS6                   UNIT 1005   STATUS:OLD                 
 FORMAT:FORMATTED              ACCESS:SEQUENTIAL          
 ACTION:READ                


 OPENED .\hagfors_1.rch
 FILE TYPE:RCH6                   UNIT 1006   STATUS:OLD                 
 FORMAT:FORMATTED              ACCESS:SEQUENTIAL          
 ACTION:READ                


 OPENED .\hagfors_1.ghb
 FILE TYPE:GHB6                   UNIT 1007   STATUS:OLD                 
 FORMAT:FORMATTED              ACCESS:SEQUENTIAL          
 ACTION:READ                


 OPENED .\hagfors_1.sto
 FILE TYPE:STO6                   UNIT 1008   STATUS:OLD                 
 FORMAT:FORMATTED              ACCESS:SEQUENTIAL          
 ACTION:READ                


 OPENED .\hagfors_1.oc
 FILE TYPE:OC6                    UNIT 1009   STATUS:OLD                 
 FORMAT:FORMATTED              ACCESS:SEQUENTIAL          
 ACTION:READ                


 OPENED .\hagfors_1.npf
 FILE TYPE:NPF6                   UNIT 1010   STATUS:OLD                 
 FORMAT:FORMATTED              ACCESS:SEQUENTIAL          
 ACTION:READ                


 OPENED .\hagfors_1.ic
 FILE TYPE:IC6                    UNIT 1011   STATUS:OLD                 
 FORMAT:FORMATTED              ACCESS:SEQUENTIAL          
 ACTION:READ                


 OPENED .\hagfors_1.disv
 FILE TYPE:DISV6                  UNIT 1012   STATUS:OLD                 
 FORMAT:FORMATTED              ACCESS:SEQUENTIAL          
 ACTION:READ                


 OPENED .\hagfors_1.sfr
 FILE TYPE:SFR6                   UNIT 1013   STATUS:OLD                 
 FORMAT:FORMATTED              ACCESS:SEQUENTIAL          
 ACTION:READ                

 NAMEFILE OPTIONS:
    FLOWS WILL BE SAVED TO BUDGET FILE SPECIFIED IN OUTPUT CONTROL
    NEWTON-RAPHSON method enabled for the model.
    NEWTON-RAPHSON UNDER-RELAXATION based on the bottom elevation of the model will be applied to the model.

 DISV -- VERTEX GRID DISCRETIZATION PACKAGE, VERSION 1 : 12/23/2015 - INPUT READ FROM UNIT 1012


 # File generated by Flopy version 3.3.5 on 01/14/2022 at 16:32:45.

 PROCESSING DISCRETIZATION OPTIONS
    MODEL LENGTH UNIT IS METERS
 END OF DISCRETIZATION OPTIONS

 PROCESSING DISCRETIZATION DIMENSIONS
   NLAY = 1
   NCPL = 3090
   NVERT = 3422
 END OF DISCRETIZATION DIMENSIONS

 PROCESSING GRIDDATA

 OPENED hagfors_1.disv_top.txt
 FILE TYPE:OPEN/CLOSE   UNIT 1015   STATUS:OLD                 
 FORMAT:FORMATTED              ACCESS:SEQUENTIAL          
 ACTION:READ                


 OPENED hagfors_1.disv_botm.txt
 FILE TYPE:OPEN/CLOSE   UNIT 1016   STATUS:OLD                 
 FORMAT:FORMATTED              ACCESS:SEQUENTIAL          
 ACTION:READ                

 END PROCESSING GRIDDATA

 OPENED hagfors_1.disv_vertices.txt
 FILE TYPE:OPEN/CLOSE   UNIT 1017   STATUS:OLD                 
 FORMAT:FORMATTED              ACCESS:SEQUENTIAL          
 ACTION:READ                


 PROCESSING VERTICES
   SUCCESSFULLY READ 3422 (X,Y) COORDINATES
   MINIMUM X COORDINATE =     426888.873000000    
   MAXIMUM X COORDINATE =     427638.406000000    
   MINIMUM Y COORDINATE =     6654725.77000000    
   MAXIMUM Y COORDINATE =     6655291.46000000    
 END PROCESSING VERTICES

 OPENED hagfors_1.disv_cell2d.txt
 FILE TYPE:OPEN/CLOSE   UNIT 1018   STATUS:OLD                 
 FORMAT:FORMATTED              ACCESS:SEQUENTIAL          
 ACTION:READ                


 PROCESSING CELL2D
   SUCCESSFULLY READ 3090 CELL2D INFORMATION ENTRIES
   MINIMUM X CELL CENTER =     426895.944000000    
   MAXIMUM X CELL CENTER =     427631.335000000    
   MINIMUM Y CELL CENTER =     6654732.84000000    
   MAXIMUM Y CELL CENTER =     6655284.39000000    
   MAXIMUM NUMBER OF CELL2D VERTICES IS 8 FOR CELL 1116
 END PROCESSING VERTICES

 NPF -- NODE PROPERTY FLOW PACKAGE, VERSION 1, 3/30/2015 INPUT READ FROM UNIT 1010


 # File generated by Flopy version 3.3.5 on 01/14/2022 at 16:32:45.
 PROCESSING NPF OPTIONS
    CELL-BY-CELL FLOW INFORMATION WILL BE SAVED TO BINARY FILE WHENEVER ICBCFL IS NOT ZERO.
 END OF NPF OPTIONS

 GHB   -- GHB PACKAGE, VERSION 8, 2/22/2014 INPUT READ FROM UNIT 1007
 # File generated by Flopy version 3.3.5 on 01/14/2022 at 16:32:45.

 PROCESSING GHB OPTIONS
    AUXILIARY GHB VARIABLE: MULTIPLIER      
    AUXILIARY MULTIPLIER NAME: MULTIPLIER      
    GHB BOUNDARIES HAVE NAMES IN LAST COLUMN.
    LISTS OF GHB CELLS WILL BE PRINTED.
    GHB FLOWS WILL BE PRINTED TO LISTING FILE.
    FLOWS WILL BE SAVED TO BUDGET FILE SPECIFIED IN OUTPUT CONTROL
 END OF GHB OPTIONS

 PROCESSING GHB DIMENSIONS
    MAXBOUND =     249
 END OF GHB DIMENSIONS

 RCH   -- RCH PACKAGE, VERSION 8, 2/22/2014 INPUT READ FROM UNIT 1006
 # File generated by Flopy version 3.3.5 on 01/14/2022 at 16:32:46.

 PROCESSING RCH OPTIONS
    RECHARGE WILL BE APPLIED TO SPECIFIED CELL.
    AUXILIARY RCH VARIABLE: MULTIPLIER      
    AUXILIARY MULTIPLIER NAME: MULTIPLIER      
    RCH BOUNDARIES HAVE NAMES IN LAST COLUMN.
    LISTS OF RCH CELLS WILL BE PRINTED.
    RCH FLOWS WILL BE PRINTED TO LISTING FILE.
    FLOWS WILL BE SAVED TO BUDGET FILE SPECIFIED IN OUTPUT CONTROL
 END OF RCH OPTIONS

 PROCESSING RCH DIMENSIONS
    MAXBOUND =    2846
 END OF RCH DIMENSIONS

 SFR   -- SFR PACKAGE, VERSION 8, 2/22/2014 INPUT READ FROM UNIT 1013
 # File generated by Flopy version 3.3.5 on 01/14/2022 at 16:32:46.

 PROCESSING SFR OPTIONS
    LISTS OF SFR CELLS WILL BE PRINTED.
    SFR STAGES WILL BE PRINTED TO LISTING FILE.
    SFR FLOWS WILL BE PRINTED TO LISTING FILE.
    FLOWS WILL BE SAVED TO BUDGET FILE SPECIFIED IN OUTPUT CONTROL

 OPENED hagfors_1.sfr.bud
 FILE TYPE:DATA(BINARY)   UNIT 1019   STATUS:REPLACE             
 FORMAT:UNFORMATTED            ACCESS:STREAM              
 ACTION:READWRITE           

    SFR  BUDGET  WILL BE SAVED TO FILE: hagfors_1.sfr.bud                                                                                                                                                                                                                                                                                                                                                                                                                                                                                                                                                                                                                                                                                                                                                                                                                                                                                                                                                                                                                                                                                                                                                                                                                                                                                                                                                                                                                                                                                                                                                                                                                                                                                                                                                                                                                                                                                                                                                                                                                                                                                                                                                                                                                                                                                                                                                                                                                                                                                                                                                                                                                                                                                                                                                                                                                                                                                                                                                                                                                                                                                                                                                                                                                                                                                                                                                                                                                                                                                                                                                                                                                                                                                                                                                                                                                                                                                                                                                                                                                                                                                                                                                                                                                                                                                                                                                                                                                                                                                                                                                                                                                                                                                                                                                                                                                                                                                                                                                                                                                                                                                                                                                                                       
    OPENED ON UNIT:    1019
    TIME-SERIES DATA WILL BE READ FROM FILE: sfr_reach1_inflow.ts
 # File generated by Flopy version 3.3.5 on 01/14/2022 at 16:32:46.
    MAXIMUM SFR ITERATION VALUE (100) SPECIFIED.
    UNIT CONVERSION VALUE (86400.00000000000) SPECIFIED.
 END OF SFR OPTIONS

 PROCESSING SFR DIMENSIONS
    NREACHES = 265
 END OF SFR DIMENSIONS

 PROCESSING SFR PACKAGEDATA
 END OF SFR PACKAGEDATA

 PROCESSING SFR CONNECTIONDATA
 END OF SFR CONNECTIONDATA

 IC -- INITIAL CONDITIONS PACKAGE, VERSION 8, 3/28/2015 INPUT READ FROM UNIT 1011
 # File generated by Flopy version 3.3.5 on 01/14/2022 at 16:32:45.
 PROCESSING GRIDDATA

 OPENED hagfors_1.ic_strt.txt
 FILE TYPE:OPEN/CLOSE   UNIT 1021   STATUS:OLD                 
 FORMAT:FORMATTED              ACCESS:SEQUENTIAL          
 ACTION:READ                

 END PROCESSING GRIDDATA
 PROCESSING GRIDDATA

 OPENED hagfors_1.npf_icelltype.txt
 FILE TYPE:OPEN/CLOSE   UNIT 1022   STATUS:OLD                 
 FORMAT:FORMATTED              ACCESS:SEQUENTIAL          
 ACTION:READ                


 OPENED hagfors_1.npf_k.txt
 FILE TYPE:OPEN/CLOSE   UNIT 1023   STATUS:OLD                 
 FORMAT:FORMATTED              ACCESS:SEQUENTIAL          
 ACTION:READ                


 OPENED hagfors_1.npf_k33.txt
 FILE TYPE:OPEN/CLOSE   UNIT 1024   STATUS:OLD                 
 FORMAT:FORMATTED              ACCESS:SEQUENTIAL          
 ACTION:READ                

 K22 not provided.  Assuming K22 = K.
 END PROCESSING GRIDDATA

 STO -- STORAGE PACKAGE, VERSION 1, 5/19/2014 INPUT READ FROM UNIT 1008


 # File generated by Flopy version 3.3.5 on 01/14/2022 at 16:32:45.
 PROCESSING STORAGE OPTIONS
    CELL-BY-CELL FLOW INFORMATION WILL BE SAVED TO BINARY FILE WHENEVER ICBCFL IS NOT ZERO.
 END OF STORAGE OPTIONS
 PROCESSING GRIDDATA

 OPENED hagfors_1.sto_iconvert.txt
 FILE TYPE:OPEN/CLOSE   UNIT 1025   STATUS:OLD                 
 FORMAT:FORMATTED              ACCESS:SEQUENTIAL          
 ACTION:READ                


 OPENED hagfors_1.sto_ss.txt
 FILE TYPE:OPEN/CLOSE   UNIT 1026   STATUS:OLD                 
 FORMAT:FORMATTED              ACCESS:SEQUENTIAL          
 ACTION:READ                


 OPENED hagfors_1.sto_sy.txt
 FILE TYPE:OPEN/CLOSE   UNIT 1027   STATUS:OLD                 
 FORMAT:FORMATTED              ACCESS:SEQUENTIAL          
 ACTION:READ                

 END PROCESSING GRIDDATA

The observation utility is active for "HAGFORS_1"
 # File generated by Flopy version 3.3.5 on 01/14/2022 at 16:32:46.

Processing observation options:

Text output number of digits of precision set to: 10
The PRINT_INPUT option has been specified.


 OPENED hagfors_1.obs_continuous_head.obs.csv.txt
 FILE TYPE:OPEN/CLOSE   UNIT 1028   STATUS:OLD                 
 FORMAT:FORMATTED              ACCESS:SEQUENTIAL          
 ACTION:READ                


 OBSERVATIONS READ FROM FILE "hagfors_1.obs"
 ----------------------------------------------------------------------------------------------------------------------------------------------------------------------------------------------------------------------------
 NAME                                     TYPE                                       TIME         LOCATION DATA                              OUTPUT FILENAME                                                                 
 ----------------------------------------------------------------------------------------------------------------------------------------------------------------------------------------------------------------------------
 B9-2                                     CONTINUOUS  HEAD                           ALL TIMES    "1 349  1 350"                             head.obs.csv                                                                    
 B10-2                                    CONTINUOUS  HEAD                           ALL TIMES    "1 1269  1 1270"                           head.obs.csv                                                                    
 B12-1                                    CONTINUOUS  HEAD                           ALL TIMES    "1 1427  1 1428"                           head.obs.csv                                                                    
 B16-1                                    CONTINUOUS  HEAD                           ALL TIMES    "1 2042  1 2043"                           head.obs.csv                                                                    
 B2-1                                     CONTINUOUS  HEAD                           ALL TIMES    "1 1822  1 1823"                           head.obs.csv                                                                    
 B22-1                                    CONTINUOUS  HEAD                           ALL TIMES    "1 1525  1 1526"                           head.obs.csv                                                                    
 B27                                      CONTINUOUS  HEAD                           ALL TIMES    "1 1431  1 1432"                           head.obs.csv                                                                    
 B29                                      CONTINUOUS  HEAD                           ALL TIMES    "1 1616  1 1617"                           head.obs.csv                                                                    
 KB1-1                                    CONTINUOUS  HEAD                           ALL TIMES    "1 2425  1 2426"                           head.obs.csv                                                                    
 KB4-3                                    CONTINUOUS  HEAD                           ALL TIMES    "1 1300  1 1301"                           head.obs.csv                                                                    
 NI1301-1                                 CONTINUOUS  HEAD                           ALL TIMES    "1 1532  1 1533"                           head.obs.csv                                                                    
 NI1302-1                                 CONTINUOUS  HEAD                           ALL TIMES    "1 1526  1 1527"                           head.obs.csv                                                                    
 NI1403-1                                 CONTINUOUS  HEAD                           ALL TIMES    "1 2446  1 2447"                           head.obs.csv                                                                    
 NI1405-1                                 CONTINUOUS  HEAD                           ALL TIMES    "1 2262  1 2263"                           head.obs.csv                                                                    
 NI1407-1                                 CONTINUOUS  HEAD                           ALL TIMES    "1 1520  1 1521"                           head.obs.csv                                                                    
 NI1408-1                                 CONTINUOUS  HEAD                           ALL TIMES    "1 1422  1 1423"                           head.obs.csv                                                                    
 NI1409-1                                 CONTINUOUS  HEAD                           ALL TIMES    "1 1743  1 1744"                           head.obs.csv                                                                    
 NI1410-1                                 CONTINUOUS  HEAD                           ALL TIMES    "1 1748  1 1749"                           head.obs.csv                                                                    
 NI1411-1                                 CONTINUOUS  HEAD                           ALL TIMES    "1 1635  1 1636"                           head.obs.csv                                                                    
 NI1412-1                                 CONTINUOUS  HEAD                           ALL TIMES    "1 2442  1 2443"                           head.obs.csv                                                                    
 NI1413-1                                 CONTINUOUS  HEAD                           ALL TIMES    "1 2544  1 2545"                           head.obs.csv                                                                    
 NI1501-1                                 CONTINUOUS  HEAD                           ALL TIMES    "1 1326  1 1327"                           head.obs.csv                                                                    
 NI1502-2                                 CONTINUOUS  HEAD                           ALL TIMES    "1 1157  1 1158"                           head.obs.csv                                                                    
 NI1503-2                                 CONTINUOUS  HEAD                           ALL TIMES    "1 1247  1 1248"                           head.obs.csv                                                                    
 NI1504-2                                 CONTINUOUS  HEAD                           ALL TIMES    "1 1344  1 1345"                           head.obs.csv                                                                    
 NI1505-1                                 CONTINUOUS  HEAD                           ALL TIMES    "1 1341  1 1342"                           head.obs.csv                                                                    
 NI1506-1                                 CONTINUOUS  HEAD                           ALL TIMES    "1 1425  1 1426"                           head.obs.csv                                                                    
 NI15-O1                                  CONTINUOUS  HEAD                           ALL TIMES    "1 2528  1 2529"                           head.obs.csv                                                                    
 NI15-O44                                 CONTINUOUS  HEAD                           ALL TIMES    "1 2314  1 2315"                           head.obs.csv                                                                    
 NI15-O46                                 CONTINUOUS  HEAD                           ALL TIMES    "1 1603  1 1604"                           head.obs.csv                                                                    
 NI15-O47                                 CONTINUOUS  HEAD                           ALL TIMES    "1 1701  1 1702"                           head.obs.csv                                                                    
 NI15-O48                                 CONTINUOUS  HEAD                           ALL TIMES    "1 948  1 949"                             head.obs.csv                                                                    
 NI1601-1                                 CONTINUOUS  HEAD                           ALL TIMES    "1 2321  1 2322"                           head.obs.csv                                                                    
 NI1602-1                                 CONTINUOUS  HEAD                           ALL TIMES    "1 2172  1 2173"                           head.obs.csv                                                                    
 NI1603-1                                 CONTINUOUS  HEAD                           ALL TIMES    "1 2106  1 2107"                           head.obs.csv                                                                    
 NI1605-1                                 CONTINUOUS  HEAD                           ALL TIMES    "1 2450  1 2451"                           head.obs.csv                                                                    
 NI1606-1                                 CONTINUOUS  HEAD                           ALL TIMES    "1 1949  1 1950"                           head.obs.csv                                                                    
 NI1607-1                                 CONTINUOUS  HEAD                           ALL TIMES    "1 2528  1 2529"                           head.obs.csv                                                                    
 NI1608-1                                 CONTINUOUS  HEAD                           ALL TIMES    "1 2612  1 2613"                           head.obs.csv                                                                    
 NI1609-2                                 CONTINUOUS  HEAD                           ALL TIMES    "1 2616  1 2617"                           head.obs.csv                                                                    
 NI1610-2                                 CONTINUOUS  HEAD                           ALL TIMES    "1 2614  1 2615"                           head.obs.csv                                                                    
 NI1611-1                                 CONTINUOUS  HEAD                           ALL TIMES    "1 2618  1 2619"                           head.obs.csv                                                                    
 NI1612-1                                 CONTINUOUS  HEAD                           ALL TIMES    "1 2414  1 2415"                           head.obs.csv                                                                    
 NI1613-1                                 CONTINUOUS  HEAD                           ALL TIMES    "1 2106  1 2107"                           head.obs.csv                                                                    
 NI1703-1                                 CONTINUOUS  HEAD                           ALL TIMES    "1 2530  1 2531"                           head.obs.csv                                                                    
 NI1704-1                                 CONTINUOUS  HEAD                           ALL TIMES    "1 1037  1 1038"                           head.obs.csv                                                                    
 NI1705-1                                 CONTINUOUS  HEAD                           ALL TIMES    "1 1208  1 1209"                           head.obs.csv                                                                    
 NI1712-1                                 CONTINUOUS  HEAD                           ALL TIMES    "1 2622  1 2623"                           head.obs.csv                                                                    
 NI1801-1                                 CONTINUOUS  HEAD                           ALL TIMES    "1 1118  1 1119"                           head.obs.csv                                                                    
 NI1802-1                                 CONTINUOUS  HEAD                           ALL TIMES    "1 1120  1 1121"                           head.obs.csv                                                                    
 NI1803-1                                 CONTINUOUS  HEAD                           ALL TIMES    "1 1204  1 1205"                           head.obs.csv                                                                    
 NI1804-1                                 CONTINUOUS  HEAD                           ALL TIMES    "1 1296  1 1297"                           head.obs.csv                                                                    
 ----------------------------------------------------------------------------------------------------------------------------------------------------------------------------------------------------------------------------


    BINARY GRID INFORMATION WILL BE WRITTEN TO:
      UNIT NUMBER: 1030
      FILE NAME: C:\Users\nat12nho\Documents\Development\repos\hagfors_gwm\base_model_files_2d\hagfors_1.disv.grb

 OPENED C:\Users\nat12nho\Documents\Development\repos\hagfors_gwm\base_model_files_2d\hagfors_1.disv.grb
 FILE TYPE:DATA(BINARY)   UNIT 1030   STATUS:REPLACE             
 FORMAT:UNFORMATTED            ACCESS:STREAM              
 ACTION:READWRITE           

      THE LAST TIME STEP WILL BE PRINTED
      THE LAST TIME STEP WILL BE PRINTED
 # File generated by Flopy version 3.3.5 on 01/14/2022 at 16:32:45.

 PROCESSING OC OPTIONS

    BUDGET INFORMATION WILL BE WRITTEN TO:
      UNIT NUMBER: 1031
      FILE NAME: hagfors_1.cbb

 OPENED hagfors_1.cbb
 FILE TYPE:DATA(BINARY)   UNIT 1031   STATUS:REPLACE             
 FORMAT:UNFORMATTED            ACCESS:STREAM              
 ACTION:READWRITE           

    HEAD INFORMATION WILL BE WRITTEN TO:
      UNIT NUMBER: 1032
      FILE NAME: hagfors_1.hds

 OPENED hagfors_1.hds
 FILE TYPE:DATA(BINARY)   UNIT 1032   STATUS:REPLACE             
 FORMAT:UNFORMATTED            ACCESS:STREAM              
 ACTION:READWRITE           

 END OF OC OPTIONS

 SFR PACKAGE (SFR) STATIC REACH DATA
 ---------------------------------------------------------------------------------------------------------------------------------------
                                                                                                                              UPSTREAM  
   NUMBER   CELLID                  LENGTH       WIDTH        SLOPE         TOP       THICKNESS        HK       ROUGHNESS     FRACTION  
 ---------------------------------------------------------------------------------------------------------------------------------------
     1      (1,2670)              5.8800       2.0000       1.00000E-03  143.61       1.0000       86.400       3.00000E-02  1.0000     
     2      (1,2668)              1.8500       2.0000       1.00000E-03  143.50       1.0000       86.400       3.00000E-02  1.0000     
     3      (1,2666)              3.5600       2.0000       1.00000E-03  143.45       1.0000       86.400       3.00000E-02  1.0000     
     4      (1,2665)              5.5300       2.0000       1.00000E-03  143.45       1.0000       86.400       3.00000E-02  1.0000     
     5      (1,2662)              2.8400       2.0000       1.00000E-03  143.45       1.0000       86.400       3.00000E-02  1.0000     
     6      (1,2582)              2.7700       2.0000       1.00000E-03  143.45       1.0000       86.400       3.00000E-02  1.0000     
     7      (1,2581)              6.3300       2.0000       1.00000E-03  143.42       1.0000       86.400       3.00000E-02  1.0000     
     8      (1,2578)              0.35000      2.0000       1.00000E-03  143.33       1.0000       86.400       3.00000E-02  1.0000     
     9      (1,2576)              4.9900       2.0000       1.00000E-03  143.33       1.0000       86.400       3.00000E-02  1.0000     
     10     (1,2575)              5.6600       2.0000       1.00000E-03  143.33       1.0000       86.400       3.00000E-02  1.0000     
     11     (1,2494)              2.1500       2.0000       1.00000E-03  143.33       1.0000       86.400       3.00000E-02  1.0000     
     12     (1,2491)              3.3800       2.0000       1.00000E-03  143.33       1.0000       86.400       3.00000E-02  1.0000     
     13     (1,2489)              5.7800       2.0000       1.00000E-03  143.28       1.0000       86.400       3.00000E-02  1.0000     
     14     (1,2488)              0.57000      2.0000       1.00000E-03  143.25       1.0000       86.400       3.00000E-02  1.0000     
     15     (1,2382)              5.3100       2.0000       1.00000E-03  143.14       1.0000       86.400       3.00000E-02  1.0000     
     16     (1,2379)              5.2700       2.0000       1.00000E-03  143.14       1.0000       86.400       3.00000E-02  1.0000     
     17     (1,2378)              0.38000      2.0000       1.00000E-03  143.14       1.0000       86.400       3.00000E-02  1.0000     
     18     (1,2484)              4.7000       2.0000       1.00000E-03  143.14       1.0000       86.400       3.00000E-02  1.0000     
     19     (1,2481)              5.0400       2.0000       1.00000E-03  143.07       1.0000       86.400       3.00000E-02  1.0000     
     20     (1,2480)              1.6100       2.0000       1.00000E-03  143.07       1.0000       86.400       3.00000E-02  1.0000     
     21     (1,2374)              3.4900       2.0000       1.00000E-03  143.07       1.0000       86.400       3.00000E-02  1.0000     
     22     (1,2371)              5.1700       2.0000       1.00000E-03  143.07       1.0000       86.400       3.00000E-02  1.0000     
     23     (1,2370)              5.1200       2.0000       1.00000E-03  143.07       1.0000       86.400       3.00000E-02  1.0000     
     24     (1,2367)              5.2700       2.0000       1.00000E-03  143.07       1.0000       86.400       3.00000E-02  1.0000     
     25     (1,2366)              0.89000      2.0000       1.00000E-03  143.07       1.0000       86.400       3.00000E-02  1.0000     
     26     (1,2364)              4.5200       2.0000       1.00000E-03  143.03       1.0000       86.400       3.00000E-02  1.0000     
     27     (1,2361)              5.1500       2.0000       1.00000E-03  143.03       1.0000       86.400       3.00000E-02  1.0000     
     28     (1,2360)              5.0800       2.0000       1.00000E-03  143.03       1.0000       86.400       3.00000E-02  1.0000     
     29     (1,2357)              5.1200       2.0000       1.00000E-03  143.03       1.0000       86.400       3.00000E-02  1.0000     
     30     (1,2356)              5.1900       2.0000       1.00000E-03  143.03       1.0000       86.400       3.00000E-02  1.0000     
     31     (1,2353)              1.0000       2.0000       1.00000E-03  143.03       1.0000       86.400       3.00000E-02  1.0000     
     32     (1,2355)              4.2300       2.0000       1.00000E-03  143.03       1.0000       86.400       3.00000E-02  1.0000     
     33     (1,2354)              5.2600       2.0000       1.00000E-03  143.03       1.0000       86.400       3.00000E-02  1.0000     
     34     (1,2351)              5.1600       2.0000       1.00000E-03  143.03       1.0000       86.400       3.00000E-02  1.0000     
     35     (1,2350)              2.6300       2.0000       1.00000E-03  143.03       1.0000       86.400       3.00000E-02  1.0000     
     36     (1,2471)              2.5600       2.0000       1.00000E-03  143.03       1.0000       86.400       3.00000E-02  1.0000     
     37     (1,2468)              5.1000       2.0000       1.00000E-03  143.03       1.0000       86.400       3.00000E-02  1.0000     
     38     (1,2467)              5.1000       2.0000       1.00000E-03  143.03       1.0000       86.400       3.00000E-02  1.0000     
     39     (1,2464)              5.2200       2.0000       1.00000E-03  143.01       1.0000       86.400       3.00000E-02  1.0000     
     40     (1,2463)              4.6700       2.0000       1.00000E-03  142.55       1.0000       86.400       3.00000E-02  1.0000     
     41     (1,2465)              0.48000      2.0000       1.00000E-03  142.55       1.0000       86.400       3.00000E-02  1.0000     
     42     (1,2462)              5.2200       2.0000       1.00000E-03  142.05       1.0000       86.400       3.00000E-02  1.0000     
     43     (1,2461)              5.2000       2.0000       1.00000E-03  141.75       1.0000       86.400       3.00000E-02  1.0000     
     44     (1,2458)              5.0700       2.0000       1.00000E-03  141.22       1.0000       86.400       3.00000E-02  1.0000     
     45     (1,2457)              5.3600       2.0000       1.00000E-03  140.98       1.0000       86.400       3.00000E-02  1.0000     
     46     (1,2559)              3.00000E-02  2.0000       1.00000E-03  140.62       1.0000       86.400       3.00000E-02  1.0000     
     47     (1,2556)              6.1900       2.0000       1.00000E-03  140.43       1.0000       86.400       3.00000E-02  1.0000     
     48     (1,2555)              2.1000       2.0000       1.00000E-03  140.43       1.0000       86.400       3.00000E-02  1.0000     
     49     (1,2557)              4.1300       2.0000       1.00000E-03  140.05       1.0000       86.400       3.00000E-02  1.0000     
     50     (1,2554)              4.0800       2.0000       1.00000E-03  140.05       1.0000       86.400       3.00000E-02  1.0000     
     51     (1,2643)              2.3900       2.0000       1.00000E-03  139.72       1.0000       86.400       3.00000E-02  1.0000     
     52     (1,2642)              5.6900       2.0000       1.00000E-03  139.72       1.0000       86.400       3.00000E-02  1.0000     
     53     (1,2644)              1.1000       2.0000       1.00000E-03  139.56       1.0000       86.400       3.00000E-02  1.0000     
     54     (1,2641)              5.1300       2.0000       1.00000E-03  139.54       1.0000       86.400       3.00000E-02  1.0000     
     55     (1,2715)              3.6800       2.0000       1.00000E-03  139.39       1.0000       86.400       3.00000E-02  1.0000     
     56     (1,2714)              2.5200       2.0000       1.00000E-03  139.36       1.0000       86.400       3.00000E-02  1.0000     
     57     (1,2716)              5.5300       2.0000       1.00000E-03  139.20       1.0000       86.400       3.00000E-02  1.0000     
     58     (1,2779)              5.1200       2.0000       1.00000E-03  139.02       1.0000       86.400       3.00000E-02  1.0000     
     59     (1,2781)              3.1200       2.0000       1.00000E-03  138.96       1.0000       86.400       3.00000E-02  1.0000     
     60     (1,2778)              2.5900       2.0000       1.00000E-03  138.89       1.0000       86.400       3.00000E-02  1.0000     
     61     (1,2854)              4.9600       2.0000       1.00000E-03  138.89       1.0000       86.400       3.00000E-02  1.0000     
     62     (1,2853)              2.1100       2.0000       1.00000E-03  138.84       1.0000       86.400       3.00000E-02  1.0000     
     63     (1,2855)              3.6300       2.0000       1.00000E-03  138.84       1.0000       86.400       3.00000E-02  1.0000     
     64     (1,2852)              5.6600       2.0000       1.00000E-03  138.65       1.0000       86.400       3.00000E-02  1.0000     
     65     (1,2851)              5.1100       2.0000       1.00000E-03  138.58       1.0000       86.400       3.00000E-02  1.0000     
     66     (1,2848)              5.2300       2.0000       1.00000E-03  138.49       1.0000       86.400       3.00000E-02  1.0000     
     67     (1,2847)              5.1900       2.0000       1.00000E-03  138.33       1.0000       86.400       3.00000E-02  1.0000     
     68     (1,2844)              5.2700       2.0000       1.00000E-03  138.33       1.0000       86.400       3.00000E-02  1.0000     
     69     (1,2843)              5.3600       2.0000       1.00000E-03  138.33       1.0000       86.400       3.00000E-02  1.0000     
     70     (1,2840)              0.22000      2.0000       1.00000E-03  138.33       1.0000       86.400       3.00000E-02  1.0000     
     71     (1,2910)              5.3600       2.0000       1.00000E-03  138.33       1.0000       86.400       3.00000E-02  1.0000     
     72     (1,2909)              5.3700       2.0000       1.00000E-03  138.33       1.0000       86.400       3.00000E-02  1.0000     
     73     (1,2906)              1.9500       2.0000       1.00000E-03  138.33       1.0000       86.400       3.00000E-02  1.0000     
     74     (1,2908)              3.3900       2.0000       1.00000E-03  138.33       1.0000       86.400       3.00000E-02  1.0000     
     75     (1,2907)              5.2700       2.0000       1.00000E-03  138.33       1.0000       86.400       3.00000E-02  1.0000     
     76     (1,2904)              5.2700       2.0000       1.00000E-03  138.33       1.0000       86.400       3.00000E-02  1.0000     
     77     (1,2903)              1.8600       2.0000       1.00000E-03  138.33       1.0000       86.400       3.00000E-02  1.0000     
     78     (1,2961)              3.4100       2.0000       1.00000E-03  138.33       1.0000       86.400       3.00000E-02  1.0000     
     79     (1,2958)              5.2100       2.0000       1.00000E-03  138.33       1.0000       86.400       3.00000E-02  1.0000     
     80     (1,2957)              5.3700       2.0000       1.00000E-03  138.33       1.0000       86.400       3.00000E-02  1.0000     
     81     (1,2954)              5.0500       2.0000       1.00000E-03  138.33       1.0000       86.400       3.00000E-02  1.0000     
     82     (1,2953)              6.7400       2.0000       1.00000E-03  138.33       1.0000       86.400       3.00000E-02  1.0000     
     83     (1,2950)              1.1000       2.0000       1.00000E-03  138.33       1.0000       86.400       3.00000E-02  1.0000     
     84     (1,2898)              5.9700       2.0000       1.00000E-03  138.33       1.0000       86.400       3.00000E-02  1.0000     
     85     (1,2897)              1.1000       2.0000       1.00000E-03  138.24       1.0000       86.400       3.00000E-02  1.0000     
     86     (1,2895)              5.9700       2.0000       1.00000E-03  138.24       1.0000       86.400       3.00000E-02  1.0000     
     87     (1,2892)              1.1000       2.0000       1.00000E-03  137.98       1.0000       86.400       3.00000E-02  1.0000     
     88     (1,2831)              5.9700       2.0000       1.00000E-03  137.98       1.0000       86.400       3.00000E-02  1.0000     
     89     (1,2830)              1.1000       2.0000       1.00000E-03  137.56       1.0000       86.400       3.00000E-02  1.0000     
     90     (1,2828)              5.9700       2.0000       1.00000E-03  137.56       1.0000       86.400       3.00000E-02  1.0000     
     91     (1,2825)              1.1000       2.0000       1.00000E-03  137.21       1.0000       86.400       3.00000E-02  1.0000     
     92     (1,2764)              5.9700       2.0000       1.00000E-03  137.21       1.0000       86.400       3.00000E-02  1.0000     
     93     (1,2763)              1.1000       2.0000       1.00000E-03  137.20       1.0000       86.400       3.00000E-02  1.0000     
     94     (1,2761)              6.3600       2.0000       1.00000E-03  137.11       1.0000       86.400       3.00000E-02  1.0000     
     95     (1,2701)              2.4400       2.0000       1.00000E-03  136.90       1.0000       86.400       3.00000E-02  1.0000     
     96     (1,2698)              3.7300       2.0000       1.00000E-03  136.63       1.0000       86.400       3.00000E-02  1.0000     
     97     (1,2696)              5.6800       2.0000       1.00000E-03  136.63       1.0000       86.400       3.00000E-02  1.0000     
     98     (1,2616)              1.7200       2.0000       1.00000E-03  136.63       1.0000       86.400       3.00000E-02  1.0000     
     99     (1,2615)              4.6500       2.0000       1.00000E-03  136.63       1.0000       86.400       3.00000E-02  1.0000     
    100     (1,2613)              5.6900       2.0000       1.00000E-03  136.63       1.0000       86.400       3.00000E-02  1.0000     
    101     (1,2527)              6.1000       2.0000       1.00000E-03  136.63       1.0000       86.400       3.00000E-02  1.0000     
    102     (1,2525)              3.6600       2.0000       1.00000E-03  136.63       1.0000       86.400       3.00000E-02  1.0000     
    103     (1,2526)              7.3100       2.0000       1.00000E-03  136.63       1.0000       86.400       3.00000E-02  1.0000     
    104     (1,2529)              1.9500       2.0000       1.00000E-03  136.63       1.0000       86.400       3.00000E-02  1.0000     
    105     (1,2421)              5.2700       2.0000       1.00000E-03  136.63       1.0000       86.400       3.00000E-02  1.0000     
    106     (1,2419)              3.5600       2.0000       1.00000E-03  136.63       1.0000       86.400       3.00000E-02  1.0000     
    107     (1,2420)              2.6500       2.0000       1.00000E-03  136.63       1.0000       86.400       3.00000E-02  1.0000     
    108     (1,2314)              5.8800       2.0000       1.00000E-03  136.60       1.0000       86.400       3.00000E-02  1.0000     
    109     (1,2312)              5.0000       2.0000       1.00000E-03  136.49       1.0000       86.400       3.00000E-02  1.0000     
    110     (1,2244)              5.4100       2.0000       1.00000E-03  136.36       1.0000       86.400       3.00000E-02  1.0000     
    111     (1,2242)              5.0000       2.0000       1.00000E-03  136.30       1.0000       86.400       3.00000E-02  1.0000     
    112     (1,2179)              5.0500       2.0000       1.00000E-03  136.30       1.0000       86.400       3.00000E-02  1.0000     
    113     (1,2177)              5.0200       2.0000       1.00000E-03  136.30       1.0000       86.400       3.00000E-02  1.0000     
    114     (1,2110)              2.4900       2.0000       1.00000E-03  136.30       1.0000       86.400       3.00000E-02  1.0000     
    115     (1,2109)              3.1600       2.0000       1.00000E-03  136.30       1.0000       86.400       3.00000E-02  1.0000     
    116     (1,2107)              5.9100       2.0000       1.00000E-03  136.28       1.0000       86.400       3.00000E-02  1.0000     
    117     (1,2033)              0.86000      2.0000       1.00000E-03  136.28       1.0000       86.400       3.00000E-02  1.0000     
    118     (1,2030)              5.4600       2.0000       1.00000E-03  136.05       1.0000       86.400       3.00000E-02  1.0000     
    119     (1,2028)              2.9400       2.0000       1.00000E-03  136.05       1.0000       86.400       3.00000E-02  1.0000     
    120     (1,2027)              3.2700       2.0000       1.00000E-03  135.98       1.0000       86.400       3.00000E-02  1.0000     
    121     (1,1958)              4.9500       2.0000       1.00000E-03  135.90       1.0000       86.400       3.00000E-02  1.0000     
    122     (1,1959)              1.1600       2.0000       1.00000E-03  135.90       1.0000       86.400       3.00000E-02  1.0000     
    123     (1,1957)              5.1400       2.0000       1.00000E-03  135.90       1.0000       86.400       3.00000E-02  1.0000     
    124     (1,1960)              5.1400       2.0000       1.00000E-03  135.89       1.0000       86.400       3.00000E-02  1.0000     
    125     (1,1961)              4.2800       2.0000       1.00000E-03  135.89       1.0000       86.400       3.00000E-02  1.0000     
    126     (1,1885)              1.1900       2.0000       1.00000E-03  135.89       1.0000       86.400       3.00000E-02  1.0000     
    127     (1,1888)              5.3500       2.0000       1.00000E-03  135.88       1.0000       86.400       3.00000E-02  1.0000     
    128     (1,1886)              5.2500       2.0000       1.00000E-03  135.64       1.0000       86.400       3.00000E-02  1.0000     
    129     (1,1812)              6.6700       2.0000       1.00000E-03  135.64       1.0000       86.400       3.00000E-02  1.0000     
    130     (1,1809)              5.1400       2.0000       1.00000E-03  135.56       1.0000       86.400       3.00000E-02  1.0000     
    131     (1,1808)              5.3600       2.0000       1.00000E-03  135.56       1.0000       86.400       3.00000E-02  1.0000     
    132     (1,1805)              5.2700       2.0000       1.00000E-03  135.47       1.0000       86.400       3.00000E-02  1.0000     
    133     (1,1804)              2.5100       2.0000       1.00000E-03  135.47       1.0000       86.400       3.00000E-02  1.0000     
    134     (1,1802)              4.9800       2.0000       1.00000E-03  135.44       1.0000       86.400       3.00000E-02  1.0000     
    135     (1,1799)              1.3300       2.0000       1.00000E-03  135.44       1.0000       86.400       3.00000E-02  1.0000     
    136     (1,1715)              5.7500       2.0000       1.00000E-03  135.38       1.0000       86.400       3.00000E-02  1.0000     
    137     (1,1713)              6.1000       2.0000       1.00000E-03  135.36       1.0000       86.400       3.00000E-02  1.0000     
    138     (1,1716)              5.0400       2.0000       1.00000E-03  135.36       1.0000       86.400       3.00000E-02  1.0000     
    139     (1,1717)              5.6400       2.0000       1.00000E-03  135.32       1.0000       86.400       3.00000E-02  1.0000     
    140     (1,1720)              1.5800       2.0000       1.00000E-03  135.32       1.0000       86.400       3.00000E-02  1.0000     
    141     (1,1605)              5.2300       2.0000       1.00000E-03  135.32       1.0000       86.400       3.00000E-02  1.0000     
    142     (1,1603)              3.3100       2.0000       1.00000E-03  135.32       1.0000       86.400       3.00000E-02  1.0000     
    143     (1,1600)              4.3200       2.0000       1.00000E-03  135.32       1.0000       86.400       3.00000E-02  1.0000     
    144     (1,1499)              1.9800       2.0000       1.00000E-03  135.32       1.0000       86.400       3.00000E-02  1.0000     
    145     (1,1498)              5.2900       2.0000       1.00000E-03  135.32       1.0000       86.400       3.00000E-02  1.0000     
    146     (1,1495)              5.2900       2.0000       1.00000E-03  135.32       1.0000       86.400       3.00000E-02  1.0000     
    147     (1,1494)              1.7500       2.0000       1.00000E-03  135.32       1.0000       86.400       3.00000E-02  1.0000     
    148     (1,1595)              3.8700       2.0000       1.00000E-03  135.28       1.0000       86.400       3.00000E-02  1.0000     
    149     (1,1592)              5.6100       2.0000       1.00000E-03  135.28       1.0000       86.400       3.00000E-02  1.0000     
    150     (1,1594)              5.5300       2.0000       1.00000E-03  135.26       1.0000       86.400       3.00000E-02  1.0000     
    151     (1,1709)              5.2700       2.0000       1.00000E-03  135.26       1.0000       86.400       3.00000E-02  1.0000     
    152     (1,1711)              5.3900       2.0000       1.00000E-03  135.26       1.0000       86.400       3.00000E-02  1.0000     
    153     (1,1710)              5.1900       2.0000       1.00000E-03  135.26       1.0000       86.400       3.00000E-02  1.0000     
    154     (1,1707)              5.4400       2.0000       1.00000E-03  135.21       1.0000       86.400       3.00000E-02  1.0000     
    155     (1,1706)              3.7500       2.0000       1.00000E-03  135.13       1.0000       86.400       3.00000E-02  1.0000     
    156     (1,1704)              2.4400       2.0000       1.00000E-03  135.06       1.0000       86.400       3.00000E-02  1.0000     
    157     (1,1701)              5.4000       2.0000       1.00000E-03  135.06       1.0000       86.400       3.00000E-02  1.0000     
    158     (1,1700)              2.3200       2.0000       1.00000E-03  135.06       1.0000       86.400       3.00000E-02  1.0000     
    159     (1,1702)              3.4000       2.0000       1.00000E-03  135.06       1.0000       86.400       3.00000E-02  1.0000     
    160     (1,1699)              5.2700       2.0000       1.00000E-03  135.06       1.0000       86.400       3.00000E-02  1.0000     
    161     (1,1698)              5.0500       2.0000       1.00000E-03  135.06       1.0000       86.400       3.00000E-02  1.0000     
    162     (1,1695)              5.0100       2.0000       1.00000E-03  135.06       1.0000       86.400       3.00000E-02  1.0000     
    163     (1,1694)              5.0400       2.0000       1.00000E-03  135.05       1.0000       86.400       3.00000E-02  1.0000     
    164     (1,1691)              5.0600       2.0000       1.00000E-03  135.05       1.0000       86.400       3.00000E-02  1.0000     
    165     (1,1690)              5.0100       2.0000       1.00000E-03  135.05       1.0000       86.400       3.00000E-02  1.0000     
    166     (1,1687)              5.0400       2.0000       1.00000E-03  135.00       1.0000       86.400       3.00000E-02  1.0000     
    167     (1,1686)              5.0900       2.0000       1.00000E-03  134.97       1.0000       86.400       3.00000E-02  1.0000     
    168     (1,1683)              5.1000       2.0000       1.00000E-03  134.97       1.0000       86.400       3.00000E-02  1.0000     
    169     (1,1682)              5.2100       2.0000       1.00000E-03  134.97       1.0000       86.400       3.00000E-02  1.0000     
    170     (1,1679)              2.8200       2.0000       1.00000E-03  134.97       1.0000       86.400       3.00000E-02  1.0000     
    171     (1,1677)              2.6700       2.0000       1.00000E-03  134.90       1.0000       86.400       3.00000E-02  1.0000     
    172     (1,1676)              5.4800       2.0000       1.00000E-03  134.90       1.0000       86.400       3.00000E-02  1.0000     
    173     (1,1673)              3.4100       2.0000       1.00000E-03  134.90       1.0000       86.400       3.00000E-02  1.0000     
    174     (1,1582)              2.3500       2.0000       1.00000E-03  134.89       1.0000       86.400       3.00000E-02  1.0000     
    175     (1,1581)              5.5900       2.0000       1.00000E-03  134.77       1.0000       86.400       3.00000E-02  1.0000     
    176     (1,1578)              3.3400       2.0000       1.00000E-03  134.77       1.0000       86.400       3.00000E-02  1.0000     
    177     (1,1576)              2.4800       2.0000       1.00000E-03  134.77       1.0000       86.400       3.00000E-02  1.0000     
    178     (1,1575)              5.2400       2.0000       1.00000E-03  134.77       1.0000       86.400       3.00000E-02  1.0000     
    179     (1,1572)              3.1200       2.0000       1.00000E-03  134.77       1.0000       86.400       3.00000E-02  1.0000     
    180     (1,1474)              5.0000       2.0000       1.00000E-03  134.77       1.0000       86.400       3.00000E-02  1.0000     
    181     (1,1472)              4.4800       2.0000       1.00000E-03  134.77       1.0000       86.400       3.00000E-02  1.0000     
    182     (1,1475)              2.9100       2.0000       1.00000E-03  134.73       1.0000       86.400       3.00000E-02  1.0000     
    183     (1,1385)              5.2500       2.0000       1.00000E-03  134.72       1.0000       86.400       3.00000E-02  1.0000     
    184     (1,1383)              5.1100       2.0000       1.00000E-03  134.72       1.0000       86.400       3.00000E-02  1.0000     
    185     (1,1292)              5.2200       2.0000       1.00000E-03  134.72       1.0000       86.400       3.00000E-02  1.0000     
    186     (1,1290)              5.2100       2.0000       1.00000E-03  134.71       1.0000       86.400       3.00000E-02  1.0000     
    187     (1,1201)              5.3700       2.0000       1.00000E-03  134.38       1.0000       86.400       3.00000E-02  1.0000     
    188     (1,1199)              4.9400       2.0000       1.00000E-03  134.27       1.0000       86.400       3.00000E-02  1.0000     
    189     (1,1196)              0.71000      2.0000       1.00000E-03  134.27       1.0000       86.400       3.00000E-02  1.0000     
    190     (1,1115)              5.7400       2.0000       1.00000E-03  134.17       1.0000       86.400       3.00000E-02  1.0000     
    191     (1,1113)              3.6400       2.0000       1.00000E-03  134.17       1.0000       86.400       3.00000E-02  1.0000     
    192     (1,1112)              2.0900       2.0000       1.00000E-03  134.17       1.0000       86.400       3.00000E-02  1.0000     
    193     (1,1033)              5.6700       2.0000       1.00000E-03  134.17       1.0000       86.400       3.00000E-02  1.0000     
    194     (1,1031)              5.1500       2.0000       1.00000E-03  134.17       1.0000       86.400       3.00000E-02  1.0000     
    195     (1,951)               1.0800       2.0000       1.00000E-03  134.17       1.0000       86.400       3.00000E-02  1.0000     
    196     (1,948)               4.7100       2.0000       1.00000E-03  134.07       1.0000       86.400       3.00000E-02  1.0000     
    197     (1,946)               3.1600       2.0000       1.00000E-03  134.07       1.0000       86.400       3.00000E-02  1.0000     
    198     (1,945)               4.9100       2.0000       1.00000E-03  134.07       1.0000       86.400       3.00000E-02  1.0000     
    199     (1,867)               2.0500       2.0000       1.00000E-03  134.07       1.0000       86.400       3.00000E-02  1.0000     
    200     (1,864)               4.6500       2.0000       1.00000E-03  134.07       1.0000       86.400       3.00000E-02  1.0000     
    201     (1,862)               3.5200       2.0000       1.00000E-03  134.07       1.0000       86.400       3.00000E-02  1.0000     
    202     (1,861)               3.0200       2.0000       1.00000E-03  134.07       1.0000       86.400       3.00000E-02  1.0000     
    203     (1,783)               4.7600       2.0000       1.00000E-03  134.07       1.0000       86.400       3.00000E-02  1.0000     
    204     (1,780)               1.4600       2.0000       1.00000E-03  134.06       1.0000       86.400       3.00000E-02  1.0000     
    205     (1,778)               6.5400       2.0000       1.00000E-03  134.06       1.0000       86.400       3.00000E-02  1.0000     
    206     (1,701)               7.00000E-02  2.0000       1.00000E-03  134.06       1.0000       86.400       3.00000E-02  1.0000     
    207     (1,700)               6.5900       2.0000       1.00000E-03  134.06       1.0000       86.400       3.00000E-02  1.0000     
    208     (1,698)               0.98000      2.0000       1.00000E-03  134.06       1.0000       86.400       3.00000E-02  1.0000     
    209     (1,695)               5.3700       2.0000       1.00000E-03  134.06       1.0000       86.400       3.00000E-02  1.0000     
    210     (1,619)               2.8000       2.0000       1.00000E-03  133.99       1.0000       86.400       3.00000E-02  1.0000     
    211     (1,618)               3.3500       2.0000       1.00000E-03  133.99       1.0000       86.400       3.00000E-02  1.0000     
    212     (1,616)               4.9500       2.0000       1.00000E-03  133.99       1.0000       86.400       3.00000E-02  1.0000     
    213     (1,613)               2.0900       2.0000       1.00000E-03  133.99       1.0000       86.400       3.00000E-02  1.0000     
    214     (1,538)               5.4200       2.0000       1.00000E-03  133.99       1.0000       86.400       3.00000E-02  1.0000     
    215     (1,536)               3.6300       2.0000       1.00000E-03  133.82       1.0000       86.400       3.00000E-02  1.0000     
    216     (1,535)               5.6500       2.0000       1.00000E-03  133.82       1.0000       86.400       3.00000E-02  1.0000     
    217     (1,532)               9.00000E-02  2.0000       1.00000E-03  133.82       1.0000       86.400       3.00000E-02  1.0000     
    218     (1,458)               6.0300       2.0000       1.00000E-03  133.82       1.0000       86.400       3.00000E-02  1.0000     
    219     (1,456)               5.9300       2.0000       1.00000E-03  133.82       1.0000       86.400       3.00000E-02  1.0000     
    220     (1,383)               2.2500       2.0000       1.00000E-03  133.82       1.0000       86.400       3.00000E-02  1.0000     
    221     (1,382)               5.3700       2.0000       1.00000E-03  133.82       1.0000       86.400       3.00000E-02  1.0000     
    222     (1,379)               5.1500       2.0000       1.00000E-03  133.82       1.0000       86.400       3.00000E-02  1.0000     
    223     (1,378)               5.3200       2.0000       1.00000E-03  133.82       1.0000       86.400       3.00000E-02  1.0000     
    224     (1,376)               0.93000      2.0000       1.00000E-03  133.82       1.0000       86.400       3.00000E-02  1.0000     
    225     (1,373)               6.0100       2.0000       1.00000E-03  133.82       1.0000       86.400       3.00000E-02  1.0000     
    226     (1,372)               1.8900       2.0000       1.00000E-03  133.82       1.0000       86.400       3.00000E-02  1.0000     
    227     (1,297)               4.0600       2.0000       1.00000E-03  133.82       1.0000       86.400       3.00000E-02  1.0000     
    228     (1,294)               5.2500       2.0000       1.00000E-03  133.82       1.0000       86.400       3.00000E-02  1.0000     
    229     (1,292)               0.69000      2.0000       1.00000E-03  133.82       1.0000       86.400       3.00000E-02  1.0000     
    230     (1,291)               5.3300       2.0000       1.00000E-03  133.82       1.0000       86.400       3.00000E-02  1.0000     
    231     (1,288)               5.1200       2.0000       1.00000E-03  133.82       1.0000       86.400       3.00000E-02  1.0000     
    232     (1,287)               5.2600       2.0000       1.00000E-03  133.82       1.0000       86.400       3.00000E-02  1.0000     
    233     (1,284)               0.66000      2.0000       1.00000E-03  133.82       1.0000       86.400       3.00000E-02  1.0000     
    234     (1,248)               4.5700       2.0000       1.00000E-03  133.82       1.0000       86.400       3.00000E-02  1.0000     
    235     (1,247)               5.6700       2.0000       1.00000E-03  133.82       1.0000       86.400       3.00000E-02  1.0000     
    236     (1,244)               2.2400       2.0000       1.00000E-03  133.59       1.0000       86.400       3.00000E-02  1.0000     
    237     (1,242)               3.7300       2.0000       1.00000E-03  133.51       1.0000       86.400       3.00000E-02  1.0000     
    238     (1,241)               4.5500       2.0000       1.00000E-03  133.28       1.0000       86.400       3.00000E-02  1.0000     
    239     (1,207)               2.3300       2.0000       1.00000E-03  133.28       1.0000       86.400       3.00000E-02  1.0000     
    240     (1,204)               4.7400       2.0000       1.00000E-03  133.28       1.0000       86.400       3.00000E-02  1.0000     
    241     (1,202)               2.3300       2.0000       1.00000E-03  133.28       1.0000       86.400       3.00000E-02  1.0000     
    242     (1,201)               4.7400       2.0000       1.00000E-03  133.28       1.0000       86.400       3.00000E-02  1.0000     
    243     (1,169)               2.3100       2.0000       1.00000E-03  133.28       1.0000       86.400       3.00000E-02  1.0000     
    244     (1,166)               5.8900       2.0000       1.00000E-03  133.28       1.0000       86.400       3.00000E-02  1.0000     
    245     (1,164)               0.33000      2.0000       1.00000E-03  133.28       1.0000       86.400       3.00000E-02  1.0000     
    246     (1,163)               6.7400       2.0000       1.00000E-03  133.28       1.0000       86.400       3.00000E-02  1.0000     
    247     (1,133)               0.33000      2.0000       1.00000E-03  133.28       1.0000       86.400       3.00000E-02  1.0000     
    248     (1,130)               6.7400       2.0000       1.00000E-03  133.28       1.0000       86.400       3.00000E-02  1.0000     
    249     (1,128)               0.33000      2.0000       1.00000E-03  133.28       1.0000       86.400       3.00000E-02  1.0000     
    250     (1,127)               6.7400       2.0000       1.00000E-03  133.28       1.0000       86.400       3.00000E-02  1.0000     
    251     (1,99)                0.33000      2.0000       1.00000E-03  133.28       1.0000       86.400       3.00000E-02  1.0000     
    252     (1,96)                6.7400       2.0000       1.00000E-03  133.28       1.0000       86.400       3.00000E-02  1.0000     
    253     (1,94)                0.33000      2.0000       1.00000E-03  133.28       1.0000       86.400       3.00000E-02  1.0000     
    254     (1,93)                6.7400       2.0000       1.00000E-03  133.28       1.0000       86.400       3.00000E-02  1.0000     
    255     (1,67)                0.33000      2.0000       1.00000E-03  133.28       1.0000       86.400       3.00000E-02  1.0000     
    256     (1,64)                6.8200       2.0000       1.00000E-03  133.28       1.0000       86.400       3.00000E-02  1.0000     
    257     (1,63)                0.28000      2.0000       1.00000E-03  133.28       1.0000       86.400       3.00000E-02  1.0000     
    258     (1,61)                6.1400       2.0000       1.00000E-03  133.27       1.0000       86.400       3.00000E-02  1.0000     
    259     (1,58)                1.6700       2.0000       1.00000E-03  133.27       1.0000       86.400       3.00000E-02  1.0000     
    260     (1,34)                5.4100       2.0000       1.00000E-03  133.15       1.0000       86.400       3.00000E-02  1.0000     
    261     (1,33)                2.0700       2.0000       1.00000E-03  133.15       1.0000       86.400       3.00000E-02  1.0000     
    262     (1,31)                4.1000       2.0000       1.00000E-03  133.15       1.0000       86.400       3.00000E-02  1.0000     
    263     (1,28)                3.6700       2.0000       1.00000E-03  133.15       1.0000       86.400       3.00000E-02  1.0000     
    264     (1,6)                 3.4100       2.0000       1.00000E-03  133.15       1.0000       86.400       3.00000E-02  1.0000     
    265     (1,5)                 3.6700       2.0000       1.00000E-03  133.15       1.0000       86.400       3.00000E-02  1.0000     
 ---------------------------------------------------------------------------------------------------------------------------------------



 SFR PACKAGE (SFR) STATIC REACH CONNECTION DATA
 --------------------------------
   REACH      CONN 1     CONN 2  
 --------------------------------
     1          2                
     2          1          3     
     3          2          4     
     4          3          5     
     5          4          6     
     6          5          7     
     7          6          8     
     8          7          9     
     9          8          10    
     10         9          11    
     11         10         12    
     12         11         13    
     13         12         14    
     14         13         15    
     15         14         16    
     16         15         17    
     17         16         18    
     18         17         19    
     19         18         20    
     20         19         21    
     21         20         22    
     22         21         23    
     23         22         24    
     24         23         25    
     25         24         26    
     26         25         27    
     27         26         28    
     28         27         29    
     29         28         30    
     30         29         31    
     31         30         32    
     32         31         33    
     33         32         34    
     34         33         35    
     35         34         36    
     36         35         37    
     37         36         38    
     38         37         39    
     39         38         40    
     40         39         41    
     41         40         42    
     42         41         43    
     43         42         44    
     44         43         45    
     45         44         46    
     46         45         47    
     47         46         48    
     48         47         49    
     49         48         50    
     50         49         51    
     51         50         52    
     52         51         53    
     53         52         54    
     54         53         55    
     55         54         56    
     56         55         57    
     57         56         58    
     58         57         59    
     59         58         60    
     60         59         61    
     61         60         62    
     62         61         63    
     63         62         64    
     64         63         65    
     65         64         66    
     66         65         67    
     67         66         68    
     68         67         69    
     69         68         70    
     70         69         71    
     71         70         72    
     72         71         73    
     73         72         74    
     74         73         75    
     75         74         76    
     76         75         77    
     77         76         78    
     78         77         79    
     79         78         80    
     80         79         81    
     81         80         82    
     82         81         83    
     83         82         84    
     84         83         85    
     85         84         86    
     86         85         87    
     87         86         88    
     88         87         89    
     89         88         90    
     90         89         91    
     91         90         92    
     92         91         93    
     93         92         94    
     94         93         95    
     95         94         96    
     96         95         97    
     97         96         98    
     98         97         99    
     99         98        100    
    100         99        101    
    101        100        102    
    102        101        103    
    103        102        104    
    104        103        105    
    105        104        106    
    106        105        107    
    107        106        108    
    108        107        109    
    109        108        110    
    110        109        111    
    111        110        112    
    112        111        113    
    113        112        114    
    114        113        115    
    115        114        116    
    116        115        117    
    117        116        118    
    118        117        119    
    119        118        120    
    120        119        121    
    121        120        122    
    122        121        123    
    123        122        124    
    124        123        125    
    125        124        126    
    126        125        127    
    127        126        128    
    128        127        129    
    129        128        130    
    130        129        131    
    131        130        132    
    132        131        133    
    133        132        134    
    134        133        135    
    135        134        136    
    136        135        137    
    137        136        138    
    138        137        139    
    139        138        140    
    140        139        141    
    141        140        142    
    142        141        143    
    143        142        144    
    144        143        145    
    145        144        146    
    146        145        147    
    147        146        148    
    148        147        149    
    149        148        150    
    150        149        151    
    151        150        152    
    152        151        153    
    153        152        154    
    154        153        155    
    155        154        156    
    156        155        157    
    157        156        158    
    158        157        159    
    159        158        160    
    160        159        161    
    161        160        162    
    162        161        163    
    163        162        164    
    164        163        165    
    165        164        166    
    166        165        167    
    167        166        168    
    168        167        169    
    169        168        170    
    170        169        171    
    171        170        172    
    172        171        173    
    173        172        174    
    174        173        175    
    175        174        176    
    176        175        177    
    177        176        178    
    178        177        179    
    179        178        180    
    180        179        181    
    181        180        182    
    182        181        183    
    183        182        184    
    184        183        185    
    185        184        186    
    186        185        187    
    187        186        188    
    188        187        189    
    189        188        190    
    190        189        191    
    191        190        192    
    192        191        193    
    193        192        194    
    194        193        195    
    195        194        196    
    196        195        197    
    197        196        198    
    198        197        199    
    199        198        200    
    200        199        201    
    201        200        202    
    202        201        203    
    203        202        204    
    204        203        205    
    205        204        206    
    206        205        207    
    207        206        208    
    208        207        209    
    209        208        210    
    210        209        211    
    211        210        212    
    212        211        213    
    213        212        214    
    214        213        215    
    215        214        216    
    216        215        217    
    217        216        218    
    218        217        219    
    219        218        220    
    220        219        221    
    221        220        222    
    222        221        223    
    223        222        224    
    224        223        225    
    225        224        226    
    226        225        227    
    227        226        228    
    228        227        229    
    229        228        230    
    230        229        231    
    231        230        232    
    232        231        233    
    233        232        234    
    234        233        235    
    235        234        236    
    236        235        237    
    237        236        238    
    238        237        239    
    239        238        240    
    240        239        241    
    241        240        242    
    242        241        243    
    243        242        244    
    244        243        245    
    245        244        246    
    246        245        247    
    247        246        248    
    248        247        249    
    249        248        250    
    250        249        251    
    251        250        252    
    252        251        253    
    253        252        254    
    254        253        255    
    255        254        256    
    256        255        257    
    257        256        258    
    258        257        259    
    259        258        260    
    260        259        261    
    261        260        262    
    262        261        263    
    263        262        264    
    264        263        265    
    265        264               
 --------------------------------



 SFR PACKAGE (SFR) STATIC UPSTREAM REACH CONNECTION DATA
 ---------------------
             UPSTREAM 
   REACH      CONN 1  
 ---------------------
     1                
     2          1     
     3          2     
     4          3     
     5          4     
     6          5     
     7          6     
     8          7     
     9          8     
     10         9     
     11         10    
     12         11    
     13         12    
     14         13    
     15         14    
     16         15    
     17         16    
     18         17    
     19         18    
     20         19    
     21         20    
     22         21    
     23         22    
     24         23    
     25         24    
     26         25    
     27         26    
     28         27    
     29         28    
     30         29    
     31         30    
     32         31    
     33         32    
     34         33    
     35         34    
     36         35    
     37         36    
     38         37    
     39         38    
     40         39    
     41         40    
     42         41    
     43         42    
     44         43    
     45         44    
     46         45    
     47         46    
     48         47    
     49         48    
     50         49    
     51         50    
     52         51    
     53         52    
     54         53    
     55         54    
     56         55    
     57         56    
     58         57    
     59         58    
     60         59    
     61         60    
     62         61    
     63         62    
     64         63    
     65         64    
     66         65    
     67         66    
     68         67    
     69         68    
     70         69    
     71         70    
     72         71    
     73         72    
     74         73    
     75         74    
     76         75    
     77         76    
     78         77    
     79         78    
     80         79    
     81         80    
     82         81    
     83         82    
     84         83    
     85         84    
     86         85    
     87         86    
     88         87    
     89         88    
     90         89    
     91         90    
     92         91    
     93         92    
     94         93    
     95         94    
     96         95    
     97         96    
     98         97    
     99         98    
    100         99    
    101        100    
    102        101    
    103        102    
    104        103    
    105        104    
    106        105    
    107        106    
    108        107    
    109        108    
    110        109    
    111        110    
    112        111    
    113        112    
    114        113    
    115        114    
    116        115    
    117        116    
    118        117    
    119        118    
    120        119    
    121        120    
    122        121    
    123        122    
    124        123    
    125        124    
    126        125    
    127        126    
    128        127    
    129        128    
    130        129    
    131        130    
    132        131    
    133        132    
    134        133    
    135        134    
    136        135    
    137        136    
    138        137    
    139        138    
    140        139    
    141        140    
    142        141    
    143        142    
    144        143    
    145        144    
    146        145    
    147        146    
    148        147    
    149        148    
    150        149    
    151        150    
    152        151    
    153        152    
    154        153    
    155        154    
    156        155    
    157        156    
    158        157    
    159        158    
    160        159    
    161        160    
    162        161    
    163        162    
    164        163    
    165        164    
    166        165    
    167        166    
    168        167    
    169        168    
    170        169    
    171        170    
    172        171    
    173        172    
    174        173    
    175        174    
    176        175    
    177        176    
    178        177    
    179        178    
    180        179    
    181        180    
    182        181    
    183        182    
    184        183    
    185        184    
    186        185    
    187        186    
    188        187    
    189        188    
    190        189    
    191        190    
    192        191    
    193        192    
    194        193    
    195        194    
    196        195    
    197        196    
    198        197    
    199        198    
    200        199    
    201        200    
    202        201    
    203        202    
    204        203    
    205        204    
    206        205    
    207        206    
[...]
    179     (1,1572)              8789.6      -8828.6       39.045       0.0000       0.0000       0.0000       0.0000       0.0000       0.0000       0.0000       0.0000     
    180     (1,1474)              8828.6      -8860.0       31.347       0.0000       0.0000       0.0000       0.0000       0.0000       0.0000       0.0000       0.0000     
    181     (1,1472)              8860.0      -8868.7       8.7205       0.0000       0.0000       0.0000       0.0000       0.0000       0.0000       0.0000       0.0000     
    182     (1,1475)              8868.7      -8897.1       28.396       0.0000       0.0000       0.0000       0.0000       0.0000       0.0000       0.0000       0.0000     
    183     (1,1385)              8897.1      -8932.0       34.913       0.0000       0.0000       0.0000       0.0000       0.0000       0.0000       0.0000       0.0000     
    184     (1,1383)              8932.0      -8951.1       19.126       0.0000       0.0000       0.0000       0.0000       0.0000       0.0000       0.0000       0.0000     
    185     (1,1292)              8951.1      -8942.1      -9.0356       0.0000       0.0000       0.0000       0.0000       0.0000       0.0000       0.0000       0.0000     
    186     (1,1290)              8942.1      -8905.2      -36.923       0.0000       0.0000       0.0000       0.0000       0.0000       0.0000       0.0000       0.0000     
    187     (1,1201)              8905.2      -9064.8       159.59       0.0000       0.0000       0.0000       0.0000       0.0000       0.0000       0.0000       0.0000     
    188     (1,1199)              9064.8      -9258.0       193.26       0.0000       0.0000       0.0000       0.0000       0.0000       0.0000       0.0000       0.0000     
    189     (1,1196)              9258.0      -9283.3       25.306       0.0000       0.0000       0.0000       0.0000       0.0000       0.0000       0.0000       0.0000     
    190     (1,1115)              9283.3      -9502.1       218.76       0.0000       0.0000       0.0000       0.0000       0.0000       0.0000       0.0000       0.0000     
    191     (1,1113)              9502.1      -9637.8       135.66       0.0000       0.0000       0.0000       0.0000       0.0000       0.0000       0.0000       0.0000     
    192     (1,1112)              9637.8      -9708.2       70.452       0.0000       0.0000       0.0000       0.0000       0.0000       0.0000       0.0000       0.0000     
    193     (1,1033)              9708.2      -9859.1       150.93       0.0000       0.0000       0.0000       0.0000       0.0000       0.0000       0.0000       0.0000     
    194     (1,1031)              9859.1      -10000.       141.10       0.0000       0.0000       0.0000       0.0000       0.0000       0.0000       0.0000       0.0000     
    195     (1,951)               10000.      -10036.       35.284       0.0000       0.0000       0.0000       0.0000       0.0000       0.0000       0.0000       0.0000     
    196     (1,948)               10036.      -10198.       162.52       0.0000       0.0000       0.0000       0.0000       0.0000       0.0000       0.0000       0.0000     
    197     (1,946)               10198.      -10316.       118.42       0.0000       0.0000       0.0000       0.0000       0.0000       0.0000       0.0000       0.0000     
    198     (1,945)               10316.      -10461.       144.09       0.0000       0.0000       0.0000       0.0000       0.0000       0.0000       0.0000       0.0000     
    199     (1,867)               10461.      -10531.       70.385       0.0000       0.0000       0.0000       0.0000       0.0000       0.0000       0.0000       0.0000     
    200     (1,864)               10531.      -10654.       122.94       0.0000       0.0000       0.0000       0.0000       0.0000       0.0000       0.0000       0.0000     
    201     (1,862)               10654.      -10756.       102.39       0.0000       0.0000       0.0000       0.0000       0.0000       0.0000       0.0000       0.0000     
    202     (1,861)               10756.      -10832.       75.625       0.0000       0.0000       0.0000       0.0000       0.0000       0.0000       0.0000       0.0000     
    203     (1,783)               10832.      -10952.       119.66       0.0000       0.0000       0.0000       0.0000       0.0000       0.0000       0.0000       0.0000     
    204     (1,780)               10952.      -10989.       37.155       0.0000       0.0000       0.0000       0.0000       0.0000       0.0000       0.0000       0.0000     
    205     (1,778)               10989.      -11139.       150.44       0.0000       0.0000       0.0000       0.0000       0.0000       0.0000       0.0000       0.0000     
    206     (1,701)               11139.      -11141.       2.1426       0.0000       0.0000       0.0000       0.0000       0.0000       0.0000       0.0000       0.0000     
    207     (1,700)               11141.      -11272.       131.13       0.0000       0.0000       0.0000       0.0000       0.0000       0.0000       0.0000       0.0000     
    208     (1,698)               11272.      -11297.       24.952       0.0000       0.0000       0.0000       0.0000       0.0000       0.0000       0.0000       0.0000     
    209     (1,695)               11297.      -11385.       87.304       0.0000       0.0000       0.0000       0.0000       0.0000       0.0000       0.0000       0.0000     
    210     (1,619)               11385.      -11464.       79.676       0.0000       0.0000       0.0000       0.0000       0.0000       0.0000       0.0000       0.0000     
    211     (1,618)               11464.      -11539.       74.558       0.0000       0.0000       0.0000       0.0000       0.0000       0.0000       0.0000       0.0000     
    212     (1,616)               11539.      -11645.       106.18       0.0000       0.0000       0.0000       0.0000       0.0000       0.0000       0.0000       0.0000     
    213     (1,613)               11645.      -11682.       37.229       0.0000       0.0000       0.0000       0.0000       0.0000       0.0000       0.0000       0.0000     
    214     (1,538)               11682.      -11757.       74.894       0.0000       0.0000       0.0000       0.0000       0.0000       0.0000       0.0000       0.0000     
    215     (1,536)               11757.      -11898.       140.82       0.0000       0.0000       0.0000       0.0000       0.0000       0.0000       0.0000       0.0000     
    216     (1,535)               11898.      -12080.       181.74       0.0000       0.0000       0.0000       0.0000       0.0000       0.0000       0.0000       0.0000     
    217     (1,532)               12080.      -12083.       3.1003       0.0000       0.0000       0.0000       0.0000       0.0000       0.0000       0.0000       0.0000     
    218     (1,458)               12083.      -12247.       163.88       0.0000       0.0000       0.0000       0.0000       0.0000       0.0000       0.0000       0.0000     
    219     (1,456)               12247.      -12409.       162.46       0.0000       0.0000       0.0000       0.0000       0.0000       0.0000       0.0000       0.0000     
    220     (1,383)               12409.      -12494.       84.304       0.0000       0.0000       0.0000       0.0000       0.0000       0.0000       0.0000       0.0000     
    221     (1,382)               12494.      -12640.       146.85       0.0000       0.0000       0.0000       0.0000       0.0000       0.0000       0.0000       0.0000     
    222     (1,379)               12640.      -12759.       118.93       0.0000       0.0000       0.0000       0.0000       0.0000       0.0000       0.0000       0.0000     
    223     (1,378)               12759.      -12873.       113.62       0.0000       0.0000       0.0000       0.0000       0.0000       0.0000       0.0000       0.0000     
    224     (1,376)               12873.      -12899.       26.287       0.0000       0.0000       0.0000       0.0000       0.0000       0.0000       0.0000       0.0000     
    225     (1,373)               12899.      -13027.       127.39       0.0000       0.0000       0.0000       0.0000       0.0000       0.0000       0.0000       0.0000     
    226     (1,372)               13027.      -13067.       40.349       0.0000       0.0000       0.0000       0.0000       0.0000       0.0000       0.0000       0.0000     
    227     (1,297)               13067.      -13156.       89.533       0.0000       0.0000       0.0000       0.0000       0.0000       0.0000       0.0000       0.0000     
    228     (1,294)               13156.      -13250.       93.556       0.0000       0.0000       0.0000       0.0000       0.0000       0.0000       0.0000       0.0000     
    229     (1,292)               13250.      -13266.       16.159       0.0000       0.0000       0.0000       0.0000       0.0000       0.0000       0.0000       0.0000     
    230     (1,291)               13266.      -13357.       90.766       0.0000       0.0000       0.0000       0.0000       0.0000       0.0000       0.0000       0.0000     
    231     (1,288)               13357.      -13423.       66.127       0.0000       0.0000       0.0000       0.0000       0.0000       0.0000       0.0000       0.0000     
    232     (1,287)               13423.      -13482.       58.448       0.0000       0.0000       0.0000       0.0000       0.0000       0.0000       0.0000       0.0000     
    233     (1,284)               13482.      -13487.       5.9300       0.0000       0.0000       0.0000       0.0000       0.0000       0.0000       0.0000       0.0000     
    234     (1,248)               13487.      -13515.       27.412       0.0000       0.0000       0.0000       0.0000       0.0000       0.0000       0.0000       0.0000     
    235     (1,247)               13515.      -13509.      -5.4415       0.0000       0.0000       0.0000       0.0000       0.0000       0.0000       0.0000       0.0000     
    236     (1,244)               13509.      -13568.       58.099       0.0000       0.0000       0.0000       0.0000       0.0000       0.0000       0.0000       0.0000     
    237     (1,242)               13568.      -13680.       112.91       0.0000       0.0000       0.0000       0.0000       0.0000       0.0000       0.0000       0.0000     
    238     (1,241)               13680.      -13933.       252.33       0.0000       0.0000       0.0000       0.0000       0.0000       0.0000       0.0000       0.0000     
    239     (1,207)               13933.      -14061.       128.10       0.0000       0.0000       0.0000       0.0000       0.0000       0.0000       0.0000       0.0000     
    240     (1,204)               14061.      -14276.       214.64       0.0000       0.0000       0.0000       0.0000       0.0000       0.0000       0.0000       0.0000     
    241     (1,202)               14276.      -14388.       112.96       0.0000       0.0000       0.0000       0.0000       0.0000       0.0000       0.0000       0.0000     
    242     (1,201)               14388.      -14585.       196.10       0.0000       0.0000       0.0000       0.0000       0.0000       0.0000       0.0000       0.0000     
    243     (1,169)               14585.      -14691.       106.05       0.0000       0.0000       0.0000       0.0000       0.0000       0.0000       0.0000       0.0000     
    244     (1,166)               14691.      -14915.       223.97       0.0000       0.0000       0.0000       0.0000       0.0000       0.0000       0.0000       0.0000     
    245     (1,164)               14915.      -14930.       15.913       0.0000       0.0000       0.0000       0.0000       0.0000       0.0000       0.0000       0.0000     
    246     (1,163)               14930.      -15178.       247.88       0.0000       0.0000       0.0000       0.0000       0.0000       0.0000       0.0000       0.0000     
    247     (1,133)               15178.      -15194.       15.968       0.0000       0.0000       0.0000       0.0000       0.0000       0.0000       0.0000       0.0000     
    248     (1,130)               15194.      -15439.       244.89       0.0000       0.0000       0.0000       0.0000       0.0000       0.0000       0.0000       0.0000     
    249     (1,128)               15439.      -15455.       15.891       0.0000       0.0000       0.0000       0.0000       0.0000       0.0000       0.0000       0.0000     
    250     (1,127)               15455.      -15701.       245.47       0.0000       0.0000       0.0000       0.0000       0.0000       0.0000       0.0000       0.0000     
    251     (1,99)                15701.      -15717.       16.143       0.0000       0.0000       0.0000       0.0000       0.0000       0.0000       0.0000       0.0000     
    252     (1,96)                15717.      -15966.       249.42       0.0000       0.0000       0.0000       0.0000       0.0000       0.0000       0.0000       0.0000     
    253     (1,94)                15966.      -15983.       16.368       0.0000       0.0000       0.0000       0.0000       0.0000       0.0000       0.0000       0.0000     
    254     (1,93)                15983.      -16237.       254.35       0.0000       0.0000       0.0000       0.0000       0.0000       0.0000       0.0000       0.0000     
    255     (1,67)                16237.      -16254.       16.890       0.0000       0.0000       0.0000       0.0000       0.0000       0.0000       0.0000       0.0000     
    256     (1,64)                16254.      -16518.       264.34       0.0000       0.0000       0.0000       0.0000       0.0000       0.0000       0.0000       0.0000     
    257     (1,63)                16518.      -16531.       13.191       0.0000       0.0000       0.0000       0.0000       0.0000       0.0000       0.0000       0.0000     
    258     (1,61)                16531.      -16789.       257.47       0.0000       0.0000       0.0000       0.0000       0.0000       0.0000       0.0000       0.0000     
    259     (1,58)                16789.      -16869.       80.370       0.0000       0.0000       0.0000       0.0000       0.0000       0.0000       0.0000       0.0000     
    260     (1,34)                16869.      -17198.       329.08       0.0000       0.0000       0.0000       0.0000       0.0000       0.0000       0.0000       0.0000     
    261     (1,33)                17198.      -17342.       143.80       0.0000       0.0000       0.0000       0.0000       0.0000       0.0000       0.0000       0.0000     
    262     (1,31)                17342.      -17621.       279.25       0.0000       0.0000       0.0000       0.0000       0.0000       0.0000       0.0000       0.0000     
    263     (1,28)                17621.      -17905.       284.19       0.0000       0.0000       0.0000       0.0000       0.0000       0.0000       0.0000       0.0000     
    264     (1,6)                 17905.      -18210.       304.58       0.0000       0.0000       0.0000       0.0000       0.0000       0.0000       0.0000       0.0000     
    265     (1,5)                 18210.       0.0000       378.50       0.0000       0.0000       0.0000       0.0000      -18589.       0.0000       0.0000       0.0000     
 ------------------------------------------------------------------------------------------------------------------------------------------------------------------------------




  SFR BUDGET FOR ENTIRE MODEL AT END OF TIME STEP   48, STRESS PERIOD   2
  ------------------------------------------------------------------------------

     CUMULATIVE SFR      L**3       RATES FOR THIS TIME STEP      L**3/T
     ------------------                 ------------------------

           IN:                                      IN:
           ---                                      ---
                 GWF =    27849873.3056                   GWF =       19099.9666
            RAINFALL =           0.0000              RAINFALL =           0.0000
         EVAPORATION =           0.0000           EVAPORATION =           0.0000
              RUNOFF =           0.0000                RUNOFF =           0.0000
          EXT-INFLOW =     8060416.6667            EXT-INFLOW =        5000.0000
         EXT-OUTFLOW =           0.0000           EXT-OUTFLOW =           0.0000
             STORAGE =           0.0000               STORAGE =           0.0000

            TOTAL IN =    35910289.9723              TOTAL IN =       24099.9666

          OUT:                                     OUT:
          ----                                     ----
                 GWF =     8390526.9981                   GWF =        5511.4528
            RAINFALL =           0.0000              RAINFALL =           0.0000
         EVAPORATION =           0.0000           EVAPORATION =           0.0000
              RUNOFF =           0.0000                RUNOFF =           0.0000
          EXT-INFLOW =           0.0000            EXT-INFLOW =           0.0000
         EXT-OUTFLOW =    27519762.9741           EXT-OUTFLOW =       18588.5138
             STORAGE =           0.0000               STORAGE =           0.0000

           TOTAL OUT =    35910289.9723             TOTAL OUT =       24099.9666

            IN - OUT =       2.2352E-08              IN - OUT =       3.6380E-12

 PERCENT DISCREPANCY =          -0.00     PERCENT DISCREPANCY =          -0.00



  VOLUME BUDGET FOR ENTIRE MODEL AT END OF TIME STEP   48, STRESS PERIOD   2
  ---------------------------------------------------------------------------------------------------

     CUMULATIVE VOLUME      L**3       RATES FOR THIS TIME STEP      L**3/T          PACKAGE NAME    
     ------------------                 ------------------------                     ----------------

           IN:                                      IN:
           ---                                      ---
              STO-SS =          12.5997                STO-SS =           0.2020     STORAGE         
              STO-SY =       16797.0999                STO-SY =         269.2090     STORAGE         
                 GHB =    23991999.2207                   GHB =       16416.9604     GHB             
                 RCH =      181841.3141                   RCH =         124.5488     RCH             
                 SFR =     8390527.0184                   SFR =        5511.4528     SFR             

            TOTAL IN =    32581177.2528              TOTAL IN =       22322.3730

          OUT:                                     OUT:
          ----                                     ----
              STO-SS =           6.5373                STO-SS =           0.0000     STORAGE         
              STO-SY =        8716.1909                STO-SY =           0.0000     STORAGE         
                 GHB =     4722582.0510                   GHB =        3222.4078     GHB             
                 RCH =           0.0000                   RCH =           0.0000     RCH             
                 SFR =    27849873.2461                   SFR =       19099.9665     SFR             

           TOTAL OUT =    32581178.0253             TOTAL OUT =       22322.3743

            IN - OUT =           0.7725              IN - OUT =       1.3004E-03

 PERCENT DISCREPANCY =          -0.00     PERCENT DISCREPANCY =          -0.00




         TIME SUMMARY AT END OF TIME STEP   48 IN STRESS PERIOD    2
                    SECONDS     MINUTES      HOURS       DAYS        YEARS
                    -----------------------------------------------------------
   TIME STEP LENGTH 2.62800E+06  43800.      730.00      30.417     8.32763E-02
 STRESS PERIOD TIME 1.26144E+08 2.10240E+06  35040.      1460.0      3.9973    
         TOTAL TIME 1.26144E+08 2.10240E+06  35040.      1460.0      3.9973    


end timestep

