                                   MODFLOW 6
                U.S. GEOLOGICAL SURVEY MODULAR HYDROLOGIC MODEL
                          GROUNDWATER FLOW MODEL (GWF)
                            VERSION 6.2.1 02/18/2021

   MODFLOW 6 compiled Feb 18 2021 21:14:51 with IFORT compiler (ver. 19.10.3)

This software has been approved for release by the U.S. Geological 
Survey (USGS). Although the software has been subjected to rigorous 
review, the USGS reserves the right to update the software as needed 
pursuant to further analysis and review. No warranty, expressed or 
implied, is made by the USGS or the U.S. Government as to the 
functionality of the software and related material nor shall the 
fact of release constitute any such warranty. Furthermore, the 
software is released on condition that neither the USGS nor the U.S. 
Government shall be held liable for any damages resulting from its 
authorized or unauthorized use. Also refer to the USGS Water 
Resources Software User Rights Notice for complete use, copyright, 
and distribution information.


System command used to initiate simulation:
..\bins\win\mf6

MODFLOW was compiled using uniform precision.

Real Variables
  KIND: 8
  TINY (smallest non-zero value):    2.225074-308
  HUGE (largest value):    1.797693+308
  PRECISION: 15
  BIT SIZE: 64

Integer Variables
  KIND: 4
  HUGE (largest value): 2147483647
  BIT SIZE: 32

Long Integer Variables
  KIND: 8
  HUGE (largest value): 9223372036854775807
  BIT SIZE: 64

Logical Variables
  KIND: 4
  BIT SIZE: 32
 

 OPENED .\hagfors_1.rch
 FILE TYPE:RCH6                   UNIT 1005   STATUS:OLD                 
 FORMAT:FORMATTED              ACCESS:SEQUENTIAL          
 ACTION:READ                


 OPENED .\hagfors_1.ghb
 FILE TYPE:GHB6                   UNIT 1006   STATUS:OLD                 
 FORMAT:FORMATTED              ACCESS:SEQUENTIAL          
 ACTION:READ                


 OPENED .\hagfors_1.sto
 FILE TYPE:STO6                   UNIT 1007   STATUS:OLD                 
 FORMAT:FORMATTED              ACCESS:SEQUENTIAL          
 ACTION:READ                


 OPENED .\hagfors_1.oc
 FILE TYPE:OC6                    UNIT 1008   STATUS:OLD                 
 FORMAT:FORMATTED              ACCESS:SEQUENTIAL          
 ACTION:READ                


 OPENED .\hagfors_1.npf
 FILE TYPE:NPF6                   UNIT 1009   STATUS:OLD                 
 FORMAT:FORMATTED              ACCESS:SEQUENTIAL          
 ACTION:READ                


 OPENED .\hagfors_1.ic
 FILE TYPE:IC6                    UNIT 1010   STATUS:OLD                 
 FORMAT:FORMATTED              ACCESS:SEQUENTIAL          
 ACTION:READ                


 OPENED .\hagfors_1.disv
 FILE TYPE:DISV6                  UNIT 1011   STATUS:OLD                 
 FORMAT:FORMATTED              ACCESS:SEQUENTIAL          
 ACTION:READ                


 OPENED .\hagfors_1.sfr
 FILE TYPE:SFR6                   UNIT 1012   STATUS:OLD                 
 FORMAT:FORMATTED              ACCESS:SEQUENTIAL          
 ACTION:READ                


 OPENED .\hagfors_1.obs
 FILE TYPE:OBS6                   UNIT 1013   STATUS:OLD                 
 FORMAT:FORMATTED              ACCESS:SEQUENTIAL          
 ACTION:READ                

 NAMEFILE OPTIONS:
    FLOWS WILL BE SAVED TO BUDGET FILE SPECIFIED IN OUTPUT CONTROL
    NEWTON-RAPHSON method enabled for the model.
    NEWTON-RAPHSON UNDER-RELAXATION based on the bottom elevation of the model will be applied to the model.

 DISV -- VERTEX GRID DISCRETIZATION PACKAGE, VERSION 1 : 12/23/2015 - INPUT READ FROM UNIT 1011


 # File generated by Flopy version 3.3.5 on 01/14/2022 at 23:13:10.

 PROCESSING DISCRETIZATION OPTIONS
    MODEL LENGTH UNIT IS METERS
 END OF DISCRETIZATION OPTIONS

 PROCESSING DISCRETIZATION DIMENSIONS
   NLAY = 1
   NCPL = 3090
   NVERT = 3422
 END OF DISCRETIZATION DIMENSIONS

 PROCESSING GRIDDATA

 OPENED hagfors_1.disv_top.txt
 FILE TYPE:OPEN/CLOSE   UNIT 1015   STATUS:OLD                 
 FORMAT:FORMATTED              ACCESS:SEQUENTIAL          
 ACTION:READ                


 OPENED hagfors_1.disv_botm.txt
 FILE TYPE:OPEN/CLOSE   UNIT 1016   STATUS:OLD                 
 FORMAT:FORMATTED              ACCESS:SEQUENTIAL          
 ACTION:READ                

 END PROCESSING GRIDDATA

 OPENED hagfors_1.disv_vertices.txt
 FILE TYPE:OPEN/CLOSE   UNIT 1017   STATUS:OLD                 
 FORMAT:FORMATTED              ACCESS:SEQUENTIAL          
 ACTION:READ                


 PROCESSING VERTICES
   SUCCESSFULLY READ 3422 (X,Y) COORDINATES
   MINIMUM X COORDINATE =     426888.873000000    
   MAXIMUM X COORDINATE =     427638.406000000    
   MINIMUM Y COORDINATE =     6654725.77000000    
   MAXIMUM Y COORDINATE =     6655291.46000000    
 END PROCESSING VERTICES

 OPENED hagfors_1.disv_cell2d.txt
 FILE TYPE:OPEN/CLOSE   UNIT 1018   STATUS:OLD                 
 FORMAT:FORMATTED              ACCESS:SEQUENTIAL          
 ACTION:READ                


 PROCESSING CELL2D
   SUCCESSFULLY READ 3090 CELL2D INFORMATION ENTRIES
   MINIMUM X CELL CENTER =     426895.944000000    
   MAXIMUM X CELL CENTER =     427631.335000000    
   MINIMUM Y CELL CENTER =     6654732.84000000    
   MAXIMUM Y CELL CENTER =     6655284.39000000    
   MAXIMUM NUMBER OF CELL2D VERTICES IS 8 FOR CELL 1116
 END PROCESSING VERTICES

 NPF -- NODE PROPERTY FLOW PACKAGE, VERSION 1, 3/30/2015 INPUT READ FROM UNIT 1009


 # File generated by Flopy version 3.3.5 on 01/14/2022 at 23:13:10.
 PROCESSING NPF OPTIONS
    CELL-BY-CELL FLOW INFORMATION WILL BE SAVED TO BINARY FILE WHENEVER ICBCFL IS NOT ZERO.
 END OF NPF OPTIONS

 GHB   -- GHB PACKAGE, VERSION 8, 2/22/2014 INPUT READ FROM UNIT 1006
 # File generated by Flopy version 3.3.5 on 01/14/2022 at 23:13:10.

 PROCESSING GHB OPTIONS
    AUXILIARY GHB VARIABLE: MULTIPLIER      
    AUXILIARY MULTIPLIER NAME: MULTIPLIER      
    GHB BOUNDARIES HAVE NAMES IN LAST COLUMN.
    LISTS OF GHB CELLS WILL BE PRINTED.
    GHB FLOWS WILL BE PRINTED TO LISTING FILE.
    FLOWS WILL BE SAVED TO BUDGET FILE SPECIFIED IN OUTPUT CONTROL
 END OF GHB OPTIONS

 PROCESSING GHB DIMENSIONS
    MAXBOUND =     249
 END OF GHB DIMENSIONS

 RCH   -- RCH PACKAGE, VERSION 8, 2/22/2014 INPUT READ FROM UNIT 1005
 # File generated by Flopy version 3.3.5 on 01/14/2022 at 23:13:10.

 PROCESSING RCH OPTIONS
    RECHARGE WILL BE APPLIED TO SPECIFIED CELL.
    AUXILIARY RCH VARIABLE: MULTIPLIER      
    AUXILIARY MULTIPLIER NAME: MULTIPLIER      
    RCH BOUNDARIES HAVE NAMES IN LAST COLUMN.
    LISTS OF RCH CELLS WILL BE PRINTED.
    RCH FLOWS WILL BE PRINTED TO LISTING FILE.
    FLOWS WILL BE SAVED TO BUDGET FILE SPECIFIED IN OUTPUT CONTROL
 END OF RCH OPTIONS

 PROCESSING RCH DIMENSIONS
    MAXBOUND =    2846
 END OF RCH DIMENSIONS

 SFR   -- SFR PACKAGE, VERSION 8, 2/22/2014 INPUT READ FROM UNIT 1012
 # File generated by Flopy version 3.3.5 on 01/14/2022 at 23:13:10.

 PROCESSING SFR OPTIONS
    LISTS OF SFR CELLS WILL BE PRINTED.
    SFR STAGES WILL BE PRINTED TO LISTING FILE.
    SFR FLOWS WILL BE PRINTED TO LISTING FILE.
    FLOWS WILL BE SAVED TO BUDGET FILE SPECIFIED IN OUTPUT CONTROL

 OPENED hagfors_1.sfr.bud
 FILE TYPE:DATA(BINARY)   UNIT 1019   STATUS:REPLACE             
 FORMAT:UNFORMATTED            ACCESS:STREAM              
 ACTION:READWRITE           

    SFR  BUDGET  WILL BE SAVED TO FILE: hagfors_1.sfr.bud                                                                                                                                                                                                                                                                                                                                                                                                                                                                                                                                                                                                                                                                                                                                                                                                                                                                                                                                                                                                                                                                                                                                                                                                                                                                                                                                                                                                                                                                                                                                                                                                                                                                                                                                                                                                                                                                                                                                                                                                                                                                                                                                                                                                                                                                                                                                                                                                                                                                                                                                                                                                                                                                                                                                                                                                                                                                                                                                                                                                                                                                                                                                                                                                                                                                                                                                                                                                                                                                                                                                                                                                                                                                                                                                                                                                                                                                                                                                                                                                                                                                                                                                                                                                                                                                                                                                                                                                                                                                                                                                                                                                                                                                                                                                                                                                                                                                                                                                                                                                                                                                                                                                                                                       
    OPENED ON UNIT:    1019
    TIME-SERIES DATA WILL BE READ FROM FILE: sfr_reach1_inflow.ts
 # File generated by Flopy version 3.3.5 on 01/14/2022 at 23:13:10.

 OPENED hagfors_1.sfr.obs
 FILE TYPE:OBS   UNIT 1021   STATUS:OLD                 
 FORMAT:FORMATTED              ACCESS:SEQUENTIAL          
 ACTION:READ                

    MAXIMUM SFR ITERATION VALUE (100) SPECIFIED.
    UNIT CONVERSION VALUE (86400.00000000000) SPECIFIED.
 END OF SFR OPTIONS

 PROCESSING SFR DIMENSIONS
    NREACHES = 265
 END OF SFR DIMENSIONS

 PROCESSING SFR PACKAGEDATA
 END OF SFR PACKAGEDATA

 PROCESSING SFR CONNECTIONDATA
 END OF SFR CONNECTIONDATA

 IC -- INITIAL CONDITIONS PACKAGE, VERSION 8, 3/28/2015 INPUT READ FROM UNIT 1010
 # File generated by Flopy version 3.3.5 on 01/14/2022 at 23:13:10.
 PROCESSING GRIDDATA

 OPENED hagfors_1.ic_strt.txt
 FILE TYPE:OPEN/CLOSE   UNIT 1022   STATUS:OLD                 
 FORMAT:FORMATTED              ACCESS:SEQUENTIAL          
 ACTION:READ                

 END PROCESSING GRIDDATA
 PROCESSING GRIDDATA

 OPENED hagfors_1.npf_icelltype.txt
 FILE TYPE:OPEN/CLOSE   UNIT 1023   STATUS:OLD                 
 FORMAT:FORMATTED              ACCESS:SEQUENTIAL          
 ACTION:READ                


 OPENED hagfors_1.npf_k.txt
 FILE TYPE:OPEN/CLOSE   UNIT 1024   STATUS:OLD                 
 FORMAT:FORMATTED              ACCESS:SEQUENTIAL          
 ACTION:READ                


 OPENED hagfors_1.npf_k33.txt
 FILE TYPE:OPEN/CLOSE   UNIT 1025   STATUS:OLD                 
 FORMAT:FORMATTED              ACCESS:SEQUENTIAL          
 ACTION:READ                

 K22 not provided.  Assuming K22 = K.
 END PROCESSING GRIDDATA

 STO -- STORAGE PACKAGE, VERSION 1, 5/19/2014 INPUT READ FROM UNIT 1007


 # File generated by Flopy version 3.3.5 on 01/14/2022 at 23:13:10.
 PROCESSING STORAGE OPTIONS
    CELL-BY-CELL FLOW INFORMATION WILL BE SAVED TO BINARY FILE WHENEVER ICBCFL IS NOT ZERO.
 END OF STORAGE OPTIONS
 PROCESSING GRIDDATA

 OPENED hagfors_1.sto_iconvert.txt
 FILE TYPE:OPEN/CLOSE   UNIT 1026   STATUS:OLD                 
 FORMAT:FORMATTED              ACCESS:SEQUENTIAL          
 ACTION:READ                


 OPENED hagfors_1.sto_ss.txt
 FILE TYPE:OPEN/CLOSE   UNIT 1027   STATUS:OLD                 
 FORMAT:FORMATTED              ACCESS:SEQUENTIAL          
 ACTION:READ                


 OPENED hagfors_1.sto_sy.txt
 FILE TYPE:OPEN/CLOSE   UNIT 1028   STATUS:OLD                 
 FORMAT:FORMATTED              ACCESS:SEQUENTIAL          
 ACTION:READ                

 END PROCESSING GRIDDATA

The observation utility is active for "HAGFORS_1"
 # File generated by Flopy version 3.3.5 on 01/14/2022 at 23:13:10.

Processing observation options:

Text output number of digits of precision set to: 10
The PRINT_INPUT option has been specified.


 OBSERVATIONS READ FROM FILE "hagfors_1.obs"
 ----------------------------------------------------------------------------------------------------------------------------------------------------------------------------------------------------------------------------
 NAME                                     TYPE                                       TIME         LOCATION DATA                              OUTPUT FILENAME                                                                 
 ----------------------------------------------------------------------------------------------------------------------------------------------------------------------------------------------------------------------------
 B9-2                                     CONTINUOUS  HEAD                           ALL TIMES    "1 349  1 350"                             head.obs.csv                                                                    
 B10-2                                    CONTINUOUS  HEAD                           ALL TIMES    "1 1269  1 1270"                           head.obs.csv                                                                    
 B12-1                                    CONTINUOUS  HEAD                           ALL TIMES    "1 1427  1 1428"                           head.obs.csv                                                                    
 B16-1                                    CONTINUOUS  HEAD                           ALL TIMES    "1 2042  1 2043"                           head.obs.csv                                                                    
 B2-1                                     CONTINUOUS  HEAD                           ALL TIMES    "1 1822  1 1823"                           head.obs.csv                                                                    
 B22-1                                    CONTINUOUS  HEAD                           ALL TIMES    "1 1525  1 1526"                           head.obs.csv                                                                    
 B27                                      CONTINUOUS  HEAD                           ALL TIMES    "1 1431  1 1432"                           head.obs.csv                                                                    
 B29                                      CONTINUOUS  HEAD                           ALL TIMES    "1 1616  1 1617"                           head.obs.csv                                                                    
 KB1-1                                    CONTINUOUS  HEAD                           ALL TIMES    "1 2425  1 2426"                           head.obs.csv                                                                    
 KB4-3                                    CONTINUOUS  HEAD                           ALL TIMES    "1 1300  1 1301"                           head.obs.csv                                                                    
 NI1301-1                                 CONTINUOUS  HEAD                           ALL TIMES    "1 1532  1 1533"                           head.obs.csv                                                                    
 NI1302-1                                 CONTINUOUS  HEAD                           ALL TIMES    "1 1526  1 1527"                           head.obs.csv                                                                    
 NI1403-1                                 CONTINUOUS  HEAD                           ALL TIMES    "1 2446  1 2447"                           head.obs.csv                                                                    
 NI1405-1                                 CONTINUOUS  HEAD                           ALL TIMES    "1 2262  1 2263"                           head.obs.csv                                                                    
 NI1407-1                                 CONTINUOUS  HEAD                           ALL TIMES    "1 1520  1 1521"                           head.obs.csv                                                                    
 NI1408-1                                 CONTINUOUS  HEAD                           ALL TIMES    "1 1422  1 1423"                           head.obs.csv                                                                    
 NI1409-1                                 CONTINUOUS  HEAD                           ALL TIMES    "1 1743  1 1744"                           head.obs.csv                                                                    
 NI1410-1                                 CONTINUOUS  HEAD                           ALL TIMES    "1 1748  1 1749"                           head.obs.csv                                                                    
 NI1411-1                                 CONTINUOUS  HEAD                           ALL TIMES    "1 1635  1 1636"                           head.obs.csv                                                                    
 NI1412-1                                 CONTINUOUS  HEAD                           ALL TIMES    "1 2442  1 2443"                           head.obs.csv                                                                    
 NI1413-1                                 CONTINUOUS  HEAD                           ALL TIMES    "1 2544  1 2545"                           head.obs.csv                                                                    
 NI1501-1                                 CONTINUOUS  HEAD                           ALL TIMES    "1 1326  1 1327"                           head.obs.csv                                                                    
 NI1502-2                                 CONTINUOUS  HEAD                           ALL TIMES    "1 1157  1 1158"                           head.obs.csv                                                                    
 NI1503-2                                 CONTINUOUS  HEAD                           ALL TIMES    "1 1247  1 1248"                           head.obs.csv                                                                    
 NI1504-2                                 CONTINUOUS  HEAD                           ALL TIMES    "1 1344  1 1345"                           head.obs.csv                                                                    
 NI1505-1                                 CONTINUOUS  HEAD                           ALL TIMES    "1 1341  1 1342"                           head.obs.csv                                                                    
 NI1506-1                                 CONTINUOUS  HEAD                           ALL TIMES    "1 1425  1 1426"                           head.obs.csv                                                                    
 NI15-O1                                  CONTINUOUS  HEAD                           ALL TIMES    "1 2528  1 2529"                           head.obs.csv                                                                    
 NI15-O44                                 CONTINUOUS  HEAD                           ALL TIMES    "1 2314  1 2315"                           head.obs.csv                                                                    
 NI15-O46                                 CONTINUOUS  HEAD                           ALL TIMES    "1 1603  1 1604"                           head.obs.csv                                                                    
 NI15-O47                                 CONTINUOUS  HEAD                           ALL TIMES    "1 1701  1 1702"                           head.obs.csv                                                                    
 NI15-O48                                 CONTINUOUS  HEAD                           ALL TIMES    "1 948  1 949"                             head.obs.csv                                                                    
 NI1601-1                                 CONTINUOUS  HEAD                           ALL TIMES    "1 2321  1 2322"                           head.obs.csv                                                                    
 NI1602-1                                 CONTINUOUS  HEAD                           ALL TIMES    "1 2172  1 2173"                           head.obs.csv                                                                    
 NI1603-1                                 CONTINUOUS  HEAD                           ALL TIMES    "1 2106  1 2107"                           head.obs.csv                                                                    
 NI1605-1                                 CONTINUOUS  HEAD                           ALL TIMES    "1 2450  1 2451"                           head.obs.csv                                                                    
 NI1606-1                                 CONTINUOUS  HEAD                           ALL TIMES    "1 1949  1 1950"                           head.obs.csv                                                                    
 NI1607-1                                 CONTINUOUS  HEAD                           ALL TIMES    "1 2528  1 2529"                           head.obs.csv                                                                    
 NI1608-1                                 CONTINUOUS  HEAD                           ALL TIMES    "1 2612  1 2613"                           head.obs.csv                                                                    
 NI1609-2                                 CONTINUOUS  HEAD                           ALL TIMES    "1 2616  1 2617"                           head.obs.csv                                                                    
 NI1610-2                                 CONTINUOUS  HEAD                           ALL TIMES    "1 2614  1 2615"                           head.obs.csv                                                                    
 NI1611-1                                 CONTINUOUS  HEAD                           ALL TIMES    "1 2618  1 2619"                           head.obs.csv                                                                    
 NI1612-1                                 CONTINUOUS  HEAD                           ALL TIMES    "1 2414  1 2415"                           head.obs.csv                                                                    
 NI1613-1                                 CONTINUOUS  HEAD                           ALL TIMES    "1 2106  1 2107"                           head.obs.csv                                                                    
 NI1703-1                                 CONTINUOUS  HEAD                           ALL TIMES    "1 2530  1 2531"                           head.obs.csv                                                                    
 NI1704-1                                 CONTINUOUS  HEAD                           ALL TIMES    "1 1037  1 1038"                           head.obs.csv                                                                    
 NI1705-1                                 CONTINUOUS  HEAD                           ALL TIMES    "1 1208  1 1209"                           head.obs.csv                                                                    
 NI1712-1                                 CONTINUOUS  HEAD                           ALL TIMES    "1 2622  1 2623"                           head.obs.csv                                                                    
 NI1801-1                                 CONTINUOUS  HEAD                           ALL TIMES    "1 1118  1 1119"                           head.obs.csv                                                                    
 NI1802-1                                 CONTINUOUS  HEAD                           ALL TIMES    "1 1120  1 1121"                           head.obs.csv                                                                    
 NI1803-1                                 CONTINUOUS  HEAD                           ALL TIMES    "1 1204  1 1205"                           head.obs.csv                                                                    
 NI1804-1                                 CONTINUOUS  HEAD                           ALL TIMES    "1 1296  1 1297"                           head.obs.csv                                                                    
 ----------------------------------------------------------------------------------------------------------------------------------------------------------------------------------------------------------------------------


    BINARY GRID INFORMATION WILL BE WRITTEN TO:
      UNIT NUMBER: 1030
      FILE NAME: C:\Users\nat12nho\Documents\Development\repos\hagfors_gwm\base_model_files_2d\hagfors_1.disv.grb

 OPENED C:\Users\nat12nho\Documents\Development\repos\hagfors_gwm\base_model_files_2d\hagfors_1.disv.grb
 FILE TYPE:DATA(BINARY)   UNIT 1030   STATUS:REPLACE             
 FORMAT:UNFORMATTED            ACCESS:STREAM              
 ACTION:READWRITE           

      THE LAST TIME STEP WILL BE PRINTED
      THE LAST TIME STEP WILL BE PRINTED
 # File generated by Flopy version 3.3.5 on 01/14/2022 at 23:13:10.

 PROCESSING OC OPTIONS

    BUDGET INFORMATION WILL BE WRITTEN TO:
      UNIT NUMBER: 1031
      FILE NAME: hagfors_1.cbb

 OPENED hagfors_1.cbb
 FILE TYPE:DATA(BINARY)   UNIT 1031   STATUS:REPLACE             
 FORMAT:UNFORMATTED            ACCESS:STREAM              
 ACTION:READWRITE           

    HEAD INFORMATION WILL BE WRITTEN TO:
      UNIT NUMBER: 1032
      FILE NAME: hagfors_1.hds

 OPENED hagfors_1.hds
 FILE TYPE:DATA(BINARY)   UNIT 1032   STATUS:REPLACE             
 FORMAT:UNFORMATTED            ACCESS:STREAM              
 ACTION:READWRITE           

 END OF OC OPTIONS

The observation utility is active for "SFR"
 # File generated by Flopy version 3.3.5 on 01/14/2022 at 23:13:10.

Processing observation options:

Text output number of digits of precision set to: 10
The PRINT_INPUT option has been specified.


 OBSERVATIONS READ FROM FILE "hagfors_1.sfr.obs"
 ----------------------------------------------------------------------------------------------------------------------------------------------------------------------------------------------------------------------------
 NAME                                     TYPE                                       TIME         LOCATION DATA                              OUTPUT FILENAME                                                                 
 ----------------------------------------------------------------------------------------------------------------------------------------------------------------------------------------------------------------------------
 NI15-O1-STG                              CONTINUOUS  STAGE                          ALL TIMES    "100"                                      sfr_stage.obs.csv                                                               
 NI15-O44-STG                             CONTINUOUS  STAGE                          ALL TIMES    "107"                                      sfr_stage.obs.csv                                                               
 NI15-O46-STG                             CONTINUOUS  STAGE                          ALL TIMES    "141"                                      sfr_stage.obs.csv                                                               
 NI15-O47-STG                             CONTINUOUS  STAGE                          ALL TIMES    "156"                                      sfr_stage.obs.csv                                                               
 NI15-O48-STG                             CONTINUOUS  STAGE                          ALL TIMES    "195"                                      sfr_stage.obs.csv                                                               
 GAGE-1                                   CONTINUOUS  INFLOW                         ALL TIMES    "222"                                      sfr_gage.obs.csv                                                                
 GAGE-2                                   CONTINUOUS  INFLOW                         ALL TIMES    "234"                                      sfr_gage.obs.csv                                                                
 LK-1                                     CONTINUOUS  SFR                            ALL TIMES    "1"                                        sfr_pred_leak.obs.csv                                                           
 LK-2                                     CONTINUOUS  SFR                            ALL TIMES    "2"                                        sfr_pred_leak.obs.csv                                                           
 LK-3                                     CONTINUOUS  SFR                            ALL TIMES    "3"                                        sfr_pred_leak.obs.csv                                                           
 LK-4                                     CONTINUOUS  SFR                            ALL TIMES    "4"                                        sfr_pred_leak.obs.csv                                                           
 LK-5                                     CONTINUOUS  SFR                            ALL TIMES    "5"                                        sfr_pred_leak.obs.csv                                                           
 LK-6                                     CONTINUOUS  SFR                            ALL TIMES    "6"                                        sfr_pred_leak.obs.csv                                                           
 LK-7                                     CONTINUOUS  SFR                            ALL TIMES    "7"                                        sfr_pred_leak.obs.csv                                                           
 LK-8                                     CONTINUOUS  SFR                            ALL TIMES    "8"                                        sfr_pred_leak.obs.csv                                                           
 LK-9                                     CONTINUOUS  SFR                            ALL TIMES    "9"                                        sfr_pred_leak.obs.csv                                                           
 LK-10                                    CONTINUOUS  SFR                            ALL TIMES    "10"                                       sfr_pred_leak.obs.csv                                                           
 LK-11                                    CONTINUOUS  SFR                            ALL TIMES    "11"                                       sfr_pred_leak.obs.csv                                                           
 LK-12                                    CONTINUOUS  SFR                            ALL TIMES    "12"                                       sfr_pred_leak.obs.csv                                                           
 LK-13                                    CONTINUOUS  SFR                            ALL TIMES    "13"                                       sfr_pred_leak.obs.csv                                                           
 LK-14                                    CONTINUOUS  SFR                            ALL TIMES    "14"                                       sfr_pred_leak.obs.csv                                                           
 LK-15                                    CONTINUOUS  SFR                            ALL TIMES    "15"                                       sfr_pred_leak.obs.csv                                                           
 LK-16                                    CONTINUOUS  SFR                            ALL TIMES    "16"                                       sfr_pred_leak.obs.csv                                                           
 LK-17                                    CONTINUOUS  SFR                            ALL TIMES    "17"                                       sfr_pred_leak.obs.csv                                                           
 LK-18                                    CONTINUOUS  SFR                            ALL TIMES    "18"                                       sfr_pred_leak.obs.csv                                                           
 LK-19                                    CONTINUOUS  SFR                            ALL TIMES    "19"                                       sfr_pred_leak.obs.csv                                                           
 LK-20                                    CONTINUOUS  SFR                            ALL TIMES    "20"                                       sfr_pred_leak.obs.csv                                                           
 LK-21                                    CONTINUOUS  SFR                            ALL TIMES    "21"                                       sfr_pred_leak.obs.csv                                                           
 LK-22                                    CONTINUOUS  SFR                            ALL TIMES    "22"                                       sfr_pred_leak.obs.csv                                                           
 LK-23                                    CONTINUOUS  SFR                            ALL TIMES    "23"                                       sfr_pred_leak.obs.csv                                                           
 LK-24                                    CONTINUOUS  SFR                            ALL TIMES    "24"                                       sfr_pred_leak.obs.csv                                                           
 LK-25                                    CONTINUOUS  SFR                            ALL TIMES    "25"                                       sfr_pred_leak.obs.csv                                                           
 LK-26                                    CONTINUOUS  SFR                            ALL TIMES    "26"                                       sfr_pred_leak.obs.csv                                                           
 LK-27                                    CONTINUOUS  SFR                            ALL TIMES    "27"                                       sfr_pred_leak.obs.csv                                                           
 LK-28                                    CONTINUOUS  SFR                            ALL TIMES    "28"                                       sfr_pred_leak.obs.csv                                                           
 LK-29                                    CONTINUOUS  SFR                            ALL TIMES    "29"                                       sfr_pred_leak.obs.csv                                                           
 LK-30                                    CONTINUOUS  SFR                            ALL TIMES    "30"                                       sfr_pred_leak.obs.csv                                                           
 LK-31                                    CONTINUOUS  SFR                            ALL TIMES    "31"                                       sfr_pred_leak.obs.csv                                                           
 LK-32                                    CONTINUOUS  SFR                            ALL TIMES    "32"                                       sfr_pred_leak.obs.csv                                                           
 LK-33                                    CONTINUOUS  SFR                            ALL TIMES    "33"                                       sfr_pred_leak.obs.csv                                                           
 LK-34                                    CONTINUOUS  SFR                            ALL TIMES    "34"                                       sfr_pred_leak.obs.csv                                                           
 LK-35                                    CONTINUOUS  SFR                            ALL TIMES    "35"                                       sfr_pred_leak.obs.csv                                                           
 LK-36                                    CONTINUOUS  SFR                            ALL TIMES    "36"                                       sfr_pred_leak.obs.csv                                                           
 LK-37                                    CONTINUOUS  SFR                            ALL TIMES    "37"                                       sfr_pred_leak.obs.csv                                                           
 LK-38                                    CONTINUOUS  SFR                            ALL TIMES    "38"                                       sfr_pred_leak.obs.csv                                                           
 LK-39                                    CONTINUOUS  SFR                            ALL TIMES    "39"                                       sfr_pred_leak.obs.csv                                                           
 LK-40                                    CONTINUOUS  SFR                            ALL TIMES    "40"                                       sfr_pred_leak.obs.csv                                                           
 LK-41                                    CONTINUOUS  SFR                            ALL TIMES    "41"                                       sfr_pred_leak.obs.csv                                                           
 LK-42                                    CONTINUOUS  SFR                            ALL TIMES    "42"                                       sfr_pred_leak.obs.csv                                                           
 LK-43                                    CONTINUOUS  SFR                            ALL TIMES    "43"                                       sfr_pred_leak.obs.csv                                                           
 LK-44                                    CONTINUOUS  SFR                            ALL TIMES    "44"                                       sfr_pred_leak.obs.csv                                                           
 LK-45                                    CONTINUOUS  SFR                            ALL TIMES    "45"                                       sfr_pred_leak.obs.csv                                                           
 LK-46                                    CONTINUOUS  SFR                            ALL TIMES    "46"                                       sfr_pred_leak.obs.csv                                                           
 LK-47                                    CONTINUOUS  SFR                            ALL TIMES    "47"                                       sfr_pred_leak.obs.csv                                                           
 LK-48                                    CONTINUOUS  SFR                            ALL TIMES    "48"                                       sfr_pred_leak.obs.csv                                                           
 LK-49                                    CONTINUOUS  SFR                            ALL TIMES    "49"                                       sfr_pred_leak.obs.csv                                                           
 LK-50                                    CONTINUOUS  SFR                            ALL TIMES    "50"                                       sfr_pred_leak.obs.csv                                                           
 LK-51                                    CONTINUOUS  SFR                            ALL TIMES    "51"                                       sfr_pred_leak.obs.csv                                                           
 LK-52                                    CONTINUOUS  SFR                            ALL TIMES    "52"                                       sfr_pred_leak.obs.csv                                                           
 LK-53                                    CONTINUOUS  SFR                            ALL TIMES    "53"                                       sfr_pred_leak.obs.csv                                                           
 LK-54                                    CONTINUOUS  SFR                            ALL TIMES    "54"                                       sfr_pred_leak.obs.csv                                                           
 LK-55                                    CONTINUOUS  SFR                            ALL TIMES    "55"                                       sfr_pred_leak.obs.csv                                                           
 LK-56                                    CONTINUOUS  SFR                            ALL TIMES    "56"                                       sfr_pred_leak.obs.csv                                                           
 LK-57                                    CONTINUOUS  SFR                            ALL TIMES    "57"                                       sfr_pred_leak.obs.csv                                                           
 LK-58                                    CONTINUOUS  SFR                            ALL TIMES    "58"                                       sfr_pred_leak.obs.csv                                                           
 LK-59                                    CONTINUOUS  SFR                            ALL TIMES    "59"                                       sfr_pred_leak.obs.csv                                                           
 LK-60                                    CONTINUOUS  SFR                            ALL TIMES    "60"                                       sfr_pred_leak.obs.csv                                                           
 LK-61                                    CONTINUOUS  SFR                            ALL TIMES    "61"                                       sfr_pred_leak.obs.csv                                                           
 LK-62                                    CONTINUOUS  SFR                            ALL TIMES    "62"                                       sfr_pred_leak.obs.csv                                                           
 LK-63                                    CONTINUOUS  SFR                            ALL TIMES    "63"                                       sfr_pred_leak.obs.csv                                                           
 LK-64                                    CONTINUOUS  SFR                            ALL TIMES    "64"                                       sfr_pred_leak.obs.csv                                                           
 LK-65                                    CONTINUOUS  SFR                            ALL TIMES    "65"                                       sfr_pred_leak.obs.csv                                                           
 LK-66                                    CONTINUOUS  SFR                            ALL TIMES    "66"                                       sfr_pred_leak.obs.csv                                                           
 LK-67                                    CONTINUOUS  SFR                            ALL TIMES    "67"                                       sfr_pred_leak.obs.csv                                                           
 LK-68                                    CONTINUOUS  SFR                            ALL TIMES    "68"                                       sfr_pred_leak.obs.csv                                                           
 LK-69                                    CONTINUOUS  SFR                            ALL TIMES    "69"                                       sfr_pred_leak.obs.csv                                                           
 LK-70                                    CONTINUOUS  SFR                            ALL TIMES    "70"                                       sfr_pred_leak.obs.csv                                                           
 LK-71                                    CONTINUOUS  SFR                            ALL TIMES    "71"                                       sfr_pred_leak.obs.csv                                                           
 LK-72                                    CONTINUOUS  SFR                            ALL TIMES    "72"                                       sfr_pred_leak.obs.csv                                                           
 LK-73                                    CONTINUOUS  SFR                            ALL TIMES    "73"                                       sfr_pred_leak.obs.csv                                                           
 LK-74                                    CONTINUOUS  SFR                            ALL TIMES    "74"                                       sfr_pred_leak.obs.csv                                                           
 LK-75                                    CONTINUOUS  SFR                            ALL TIMES    "75"                                       sfr_pred_leak.obs.csv                                                           
 LK-76                                    CONTINUOUS  SFR                            ALL TIMES    "76"                                       sfr_pred_leak.obs.csv                                                           
 LK-77                                    CONTINUOUS  SFR                            ALL TIMES    "77"                                       sfr_pred_leak.obs.csv                                                           
 LK-78                                    CONTINUOUS  SFR                            ALL TIMES    "78"                                       sfr_pred_leak.obs.csv                                                           
 LK-79                                    CONTINUOUS  SFR                            ALL TIMES    "79"                                       sfr_pred_leak.obs.csv                                                           
 LK-80                                    CONTINUOUS  SFR                            ALL TIMES    "80"                                       sfr_pred_leak.obs.csv                                                           
 LK-81                                    CONTINUOUS  SFR                            ALL TIMES    "81"                                       sfr_pred_leak.obs.csv                                                           
 LK-82                                    CONTINUOUS  SFR                            ALL TIMES    "82"                                       sfr_pred_leak.obs.csv                                                           
 LK-83                                    CONTINUOUS  SFR                            ALL TIMES    "83"                                       sfr_pred_leak.obs.csv                                                           
 LK-84                                    CONTINUOUS  SFR                            ALL TIMES    "84"                                       sfr_pred_leak.obs.csv                                                           
 LK-85                                    CONTINUOUS  SFR                            ALL TIMES    "85"                                       sfr_pred_leak.obs.csv                                                           
 LK-86                                    CONTINUOUS  SFR                            ALL TIMES    "86"                                       sfr_pred_leak.obs.csv                                                           
 LK-87                                    CONTINUOUS  SFR                            ALL TIMES    "87"                                       sfr_pred_leak.obs.csv                                                           
 LK-88                                    CONTINUOUS  SFR                            ALL TIMES    "88"                                       sfr_pred_leak.obs.csv                                                           
 LK-89                                    CONTINUOUS  SFR                            ALL TIMES    "89"                                       sfr_pred_leak.obs.csv                                                           
 LK-90                                    CONTINUOUS  SFR                            ALL TIMES    "90"                                       sfr_pred_leak.obs.csv                                                           
 LK-91                                    CONTINUOUS  SFR                            ALL TIMES    "91"                                       sfr_pred_leak.obs.csv                                                           
 LK-92                                    CONTINUOUS  SFR                            ALL TIMES    "92"                                       sfr_pred_leak.obs.csv                                                           
 LK-93                                    CONTINUOUS  SFR                            ALL TIMES    "93"                                       sfr_pred_leak.obs.csv                                                           
 LK-94                                    CONTINUOUS  SFR                            ALL TIMES    "94"                                       sfr_pred_leak.obs.csv                                                           
 LK-95                                    CONTINUOUS  SFR                            ALL TIMES    "95"                                       sfr_pred_leak.obs.csv                                                           
 LK-96                                    CONTINUOUS  SFR                            ALL TIMES    "96"                                       sfr_pred_leak.obs.csv                                                           
 LK-97                                    CONTINUOUS  SFR                            ALL TIMES    "97"                                       sfr_pred_leak.obs.csv                                                           
 LK-98                                    CONTINUOUS  SFR                            ALL TIMES    "98"                                       sfr_pred_leak.obs.csv                                                           
 LK-99                                    CONTINUOUS  SFR                            ALL TIMES    "99"                                       sfr_pred_leak.obs.csv                                                           
 LK-100                                   CONTINUOUS  SFR                            ALL TIMES    "100"                                      sfr_pred_leak.obs.csv                                                           
 LK-101                                   CONTINUOUS  SFR                            ALL TIMES    "101"                                      sfr_pred_leak.obs.csv                                                           
 LK-102                                   CONTINUOUS  SFR                            ALL TIMES    "102"                                      sfr_pred_leak.obs.csv                                                           
 LK-103                                   CONTINUOUS  SFR                            ALL TIMES    "103"                                      sfr_pred_leak.obs.csv                                                           
 LK-104                                   CONTINUOUS  SFR                            ALL TIMES    "104"                                      sfr_pred_leak.obs.csv                                                           
 LK-105                                   CONTINUOUS  SFR                            ALL TIMES    "105"                                      sfr_pred_leak.obs.csv                                                           
 LK-106                                   CONTINUOUS  SFR                            ALL TIMES    "106"                                      sfr_pred_leak.obs.csv                                                           
 LK-107                                   CONTINUOUS  SFR                            ALL TIMES    "107"                                      sfr_pred_leak.obs.csv                                                           
 LK-108                                   CONTINUOUS  SFR                            ALL TIMES    "108"                                      sfr_pred_leak.obs.csv                                                           
 LK-109                                   CONTINUOUS  SFR                            ALL TIMES    "109"                                      sfr_pred_leak.obs.csv                                                           
 LK-110                                   CONTINUOUS  SFR                            ALL TIMES    "110"                                      sfr_pred_leak.obs.csv                                                           
 LK-111                                   CONTINUOUS  SFR                            ALL TIMES    "111"                                      sfr_pred_leak.obs.csv                                                           
 LK-112                                   CONTINUOUS  SFR                            ALL TIMES    "112"                                      sfr_pred_leak.obs.csv                                                           
 LK-113                                   CONTINUOUS  SFR                            ALL TIMES    "113"                                      sfr_pred_leak.obs.csv                                                           
 LK-114                                   CONTINUOUS  SFR                            ALL TIMES    "114"                                      sfr_pred_leak.obs.csv                                                           
 LK-115                                   CONTINUOUS  SFR                            ALL TIMES    "115"                                      sfr_pred_leak.obs.csv                                                           
 LK-116                                   CONTINUOUS  SFR                            ALL TIMES    "116"                                      sfr_pred_leak.obs.csv                                                           
 LK-117                                   CONTINUOUS  SFR                            ALL TIMES    "117"                                      sfr_pred_leak.obs.csv                                                           
 LK-118                                   CONTINUOUS  SFR                            ALL TIMES    "118"                                      sfr_pred_leak.obs.csv                                                           
 LK-119                                   CONTINUOUS  SFR                            ALL TIMES    "119"                                      sfr_pred_leak.obs.csv                                                           
 LK-120                                   CONTINUOUS  SFR                            ALL TIMES    "120"                                      sfr_pred_leak.obs.csv                                                           
 LK-121                                   CONTINUOUS  SFR                            ALL TIMES    "121"                                      sfr_pred_leak.obs.csv                                                           
 LK-122                                   CONTINUOUS  SFR                            ALL TIMES    "122"                                      sfr_pred_leak.obs.csv                                                           
 LK-123                                   CONTINUOUS  SFR                            ALL TIMES    "123"                                      sfr_pred_leak.obs.csv                                                           
 LK-124                                   CONTINUOUS  SFR                            ALL TIMES    "124"                                      sfr_pred_leak.obs.csv                                                           
 LK-125                                   CONTINUOUS  SFR                            ALL TIMES    "125"                                      sfr_pred_leak.obs.csv                                                           
 LK-126                                   CONTINUOUS  SFR                            ALL TIMES    "126"                                      sfr_pred_leak.obs.csv                                                           
 LK-127                                   CONTINUOUS  SFR                            ALL TIMES    "127"                                      sfr_pred_leak.obs.csv                                                           
 LK-128                                   CONTINUOUS  SFR                            ALL TIMES    "128"                                      sfr_pred_leak.obs.csv                                                           
 LK-129                                   CONTINUOUS  SFR                            ALL TIMES    "129"                                      sfr_pred_leak.obs.csv                                                           
 LK-130                                   CONTINUOUS  SFR                            ALL TIMES    "130"                                      sfr_pred_leak.obs.csv                                                           
 LK-131                                   CONTINUOUS  SFR                            ALL TIMES    "131"                                      sfr_pred_leak.obs.csv                                                           
 LK-132                                   CONTINUOUS  SFR                            ALL TIMES    "132"                                      sfr_pred_leak.obs.csv                                                           
 LK-133                                   CONTINUOUS  SFR                            ALL TIMES    "133"                                      sfr_pred_leak.obs.csv                                                           
 LK-134                                   CONTINUOUS  SFR                            ALL TIMES    "134"                                      sfr_pred_leak.obs.csv                                                           
 LK-135                                   CONTINUOUS  SFR                            ALL TIMES    "135"                                      sfr_pred_leak.obs.csv                                                           
 LK-136                                   CONTINUOUS  SFR                            ALL TIMES    "136"                                      sfr_pred_leak.obs.csv                                                           
 LK-137                                   CONTINUOUS  SFR                            ALL TIMES    "137"                                      sfr_pred_leak.obs.csv                                                           
 LK-138                                   CONTINUOUS  SFR                            ALL TIMES    "138"                                      sfr_pred_leak.obs.csv                                                           
 LK-139                                   CONTINUOUS  SFR                            ALL TIMES    "139"                                      sfr_pred_leak.obs.csv                                                           
 LK-140                                   CONTINUOUS  SFR                            ALL TIMES    "140"                                      sfr_pred_leak.obs.csv                                                           
 LK-141                                   CONTINUOUS  SFR                            ALL TIMES    "141"                                      sfr_pred_leak.obs.csv                                                           
 LK-142                                   CONTINUOUS  SFR                            ALL TIMES    "142"                                      sfr_pred_leak.obs.csv                                                           
 LK-143                                   CONTINUOUS  SFR                            ALL TIMES    "143"                                      sfr_pred_leak.obs.csv                                                           
 LK-144                                   CONTINUOUS  SFR                            ALL TIMES    "144"                                      sfr_pred_leak.obs.csv                                                           
 LK-145                                   CONTINUOUS  SFR                            ALL TIMES    "145"                                      sfr_pred_leak.obs.csv                                                           
 LK-146                                   CONTINUOUS  SFR                            ALL TIMES    "146"                                      sfr_pred_leak.obs.csv                                                           
 LK-147                                   CONTINUOUS  SFR                            ALL TIMES    "147"                                      sfr_pred_leak.obs.csv                                                           
 LK-148                                   CONTINUOUS  SFR                            ALL TIMES    "148"                                      sfr_pred_leak.obs.csv                                                           
 LK-149                                   CONTINUOUS  SFR                            ALL TIMES    "149"                                      sfr_pred_leak.obs.csv                                                           
 LK-150                                   CONTINUOUS  SFR                            ALL TIMES    "150"                                      sfr_pred_leak.obs.csv                                                           
 LK-151                                   CONTINUOUS  SFR                            ALL TIMES    "151"                                      sfr_pred_leak.obs.csv                                                           
 LK-152                                   CONTINUOUS  SFR                            ALL TIMES    "152"                                      sfr_pred_leak.obs.csv                                                           
 LK-153                                   CONTINUOUS  SFR                            ALL TIMES    "153"                                      sfr_pred_leak.obs.csv                                                           
 LK-154                                   CONTINUOUS  SFR                            ALL TIMES    "154"                                      sfr_pred_leak.obs.csv                                                           
 LK-155                                   CONTINUOUS  SFR                            ALL TIMES    "155"                                      sfr_pred_leak.obs.csv                                                           
 LK-156                                   CONTINUOUS  SFR                            ALL TIMES    "156"                                      sfr_pred_leak.obs.csv                                                           
 LK-157                                   CONTINUOUS  SFR                            ALL TIMES    "157"                                      sfr_pred_leak.obs.csv                                                           
 LK-158                                   CONTINUOUS  SFR                            ALL TIMES    "158"                                      sfr_pred_leak.obs.csv                                                           
 LK-159                                   CONTINUOUS  SFR                            ALL TIMES    "159"                                      sfr_pred_leak.obs.csv                                                           
 LK-160                                   CONTINUOUS  SFR                            ALL TIMES    "160"                                      sfr_pred_leak.obs.csv                                                           
 LK-161                                   CONTINUOUS  SFR                            ALL TIMES    "161"                                      sfr_pred_leak.obs.csv                                                           
 LK-162                                   CONTINUOUS  SFR                            ALL TIMES    "162"                                      sfr_pred_leak.obs.csv                                                           
 LK-163                                   CONTINUOUS  SFR                            ALL TIMES    "163"                                      sfr_pred_leak.obs.csv                                                           
 LK-164                                   CONTINUOUS  SFR                            ALL TIMES    "164"                                      sfr_pred_leak.obs.csv                                                           
 LK-165                                   CONTINUOUS  SFR                            ALL TIMES    "165"                                      sfr_pred_leak.obs.csv                                                           
 LK-166                                   CONTINUOUS  SFR                            ALL TIMES    "166"                                      sfr_pred_leak.obs.csv                                                           
 LK-167                                   CONTINUOUS  SFR                            ALL TIMES    "167"                                      sfr_pred_leak.obs.csv                                                           
 LK-168                                   CONTINUOUS  SFR                            ALL TIMES    "168"                                      sfr_pred_leak.obs.csv                                                           
 LK-169                                   CONTINUOUS  SFR                            ALL TIMES    "169"                                      sfr_pred_leak.obs.csv                                                           
 LK-170                                   CONTINUOUS  SFR                            ALL TIMES    "170"                                      sfr_pred_leak.obs.csv                                                           
 LK-171                                   CONTINUOUS  SFR                            ALL TIMES    "171"                                      sfr_pred_leak.obs.csv                                                           
 LK-172                                   CONTINUOUS  SFR                            ALL TIMES    "172"                                      sfr_pred_leak.obs.csv                                                           
 LK-173                                   CONTINUOUS  SFR                            ALL TIMES    "173"                                      sfr_pred_leak.obs.csv                                                           
 LK-174                                   CONTINUOUS  SFR                            ALL TIMES    "174"                                      sfr_pred_leak.obs.csv                                                           
 LK-175                                   CONTINUOUS  SFR                            ALL TIMES    "175"                                      sfr_pred_leak.obs.csv                                                           
 LK-176                                   CONTINUOUS  SFR                            ALL TIMES    "176"                                      sfr_pred_leak.obs.csv                                                           
 LK-177                                   CONTINUOUS  SFR                            ALL TIMES    "177"                                      sfr_pred_leak.obs.csv                                                           
 LK-178                                   CONTINUOUS  SFR                            ALL TIMES    "178"                                      sfr_pred_leak.obs.csv                                                           
 LK-179                                   CONTINUOUS  SFR                            ALL TIMES    "179"                                      sfr_pred_leak.obs.csv                                                           
 LK-180                                   CONTINUOUS  SFR                            ALL TIMES    "180"                                      sfr_pred_leak.obs.csv                                                           
 LK-181                                   CONTINUOUS  SFR                            ALL TIMES    "181"                                      sfr_pred_leak.obs.csv                                                           
 LK-182                                   CONTINUOUS  SFR                            ALL TIMES    "182"                                      sfr_pred_leak.obs.csv                                                           
 LK-183                                   CONTINUOUS  SFR                            ALL TIMES    "183"                                      sfr_pred_leak.obs.csv                                                           
 LK-184                                   CONTINUOUS  SFR                            ALL TIMES    "184"                                      sfr_pred_leak.obs.csv                                                           
 LK-185                                   CONTINUOUS  SFR                            ALL TIMES    "185"                                      sfr_pred_leak.obs.csv                                                           
 LK-186                                   CONTINUOUS  SFR                            ALL TIMES    "186"                                      sfr_pred_leak.obs.csv                                                           
 LK-187                                   CONTINUOUS  SFR                            ALL TIMES    "187"                                      sfr_pred_leak.obs.csv                                                           
 LK-188                                   CONTINUOUS  SFR                            ALL TIMES    "188"                                      sfr_pred_leak.obs.csv                                                           
 LK-189                                   CONTINUOUS  SFR                            ALL TIMES    "189"                                      sfr_pred_leak.obs.csv                                                           
 LK-190                                   CONTINUOUS  SFR                            ALL TIMES    "190"                                      sfr_pred_leak.obs.csv                                                           
 LK-191                                   CONTINUOUS  SFR                            ALL TIMES    "191"                                      sfr_pred_leak.obs.csv                                                           
 LK-192                                   CONTINUOUS  SFR                            ALL TIMES    "192"                                      sfr_pred_leak.obs.csv                                                           
 LK-193                                   CONTINUOUS  SFR                            ALL TIMES    "193"                                      sfr_pred_leak.obs.csv                                                           
 LK-194                                   CONTINUOUS  SFR                            ALL TIMES    "194"                                      sfr_pred_leak.obs.csv                                                           
 LK-195                                   CONTINUOUS  SFR                            ALL TIMES    "195"                                      sfr_pred_leak.obs.csv                                                           
 LK-196                                   CONTINUOUS  SFR                            ALL TIMES    "196"                                      sfr_pred_leak.obs.csv                                                           
 LK-197                                   CONTINUOUS  SFR                            ALL TIMES    "197"                                      sfr_pred_leak.obs.csv                                                           
 LK-198                                   CONTINUOUS  SFR                            ALL TIMES    "198"                                      sfr_pred_leak.obs.csv                                                           
 LK-199                                   CONTINUOUS  SFR                            ALL TIMES    "199"                                      sfr_pred_leak.obs.csv                                                           
 LK-200                                   CONTINUOUS  SFR                            ALL TIMES    "200"                                      sfr_pred_leak.obs.csv                                                           
 LK-201                                   CONTINUOUS  SFR                            ALL TIMES    "201"                                      sfr_pred_leak.obs.csv                                                           
 LK-202                                   CONTINUOUS  SFR                            ALL TIMES    "202"                                      sfr_pred_leak.obs.csv                                                           
 LK-203                                   CONTINUOUS  SFR                            ALL TIMES    "203"                                      sfr_pred_leak.obs.csv                                                           
 LK-204                                   CONTINUOUS  SFR                            ALL TIMES    "204"                                      sfr_pred_leak.obs.csv                                                           
 LK-205                                   CONTINUOUS  SFR                            ALL TIMES    "205"                                      sfr_pred_leak.obs.csv                                                           
 LK-206                                   CONTINUOUS  SFR                            ALL TIMES    "206"                                      sfr_pred_leak.obs.csv                                                           
 LK-207                                   CONTINUOUS  SFR                            ALL TIMES    "207"                                      sfr_pred_leak.obs.csv                                                           
 LK-208                                   CONTINUOUS  SFR                            ALL TIMES    "208"                                      sfr_pred_leak.obs.csv                                                           
 LK-209                                   CONTINUOUS  SFR                            ALL TIMES    "209"                                      sfr_pred_leak.obs.csv                                                           
 LK-210                                   CONTINUOUS  SFR                            ALL TIMES    "210"                                      sfr_pred_leak.obs.csv                                                           
 LK-211                                   CONTINUOUS  SFR                            ALL TIMES    "211"                                      sfr_pred_leak.obs.csv                                                           
 LK-212                                   CONTINUOUS  SFR                            ALL TIMES    "212"                                      sfr_pred_leak.obs.csv                                                           
 LK-213                                   CONTINUOUS  SFR                            ALL TIMES    "213"                                      sfr_pred_leak.obs.csv                                                           
 LK-214                                   CONTINUOUS  SFR                            ALL TIMES    "214"                                      sfr_pred_leak.obs.csv                                                           
 LK-215                                   CONTINUOUS  SFR                            ALL TIMES    "215"                                      sfr_pred_leak.obs.csv                                                           
 LK-216                                   CONTINUOUS  SFR                            ALL TIMES    "216"                                      sfr_pred_leak.obs.csv                                                           
 LK-217                                   CONTINUOUS  SFR                            ALL TIMES    "217"                                      sfr_pred_leak.obs.csv                                                           
 LK-218                                   CONTINUOUS  SFR                            ALL TIMES    "218"                                      sfr_pred_leak.obs.csv                                                           
 LK-219                                   CONTINUOUS  SFR                            ALL TIMES    "219"                                      sfr_pred_leak.obs.csv                                                           
[...]
    179     (1,1572)              8657.4      -8696.2       38.784       0.0000       0.0000       0.0000       0.0000       0.0000       0.0000       0.0000       0.0000     
    180     (1,1474)              8696.2      -8727.2       31.009       0.0000       0.0000       0.0000       0.0000       0.0000       0.0000       0.0000       0.0000     
    181     (1,1472)              8727.2      -8735.6       8.4219       0.0000       0.0000       0.0000       0.0000       0.0000       0.0000       0.0000       0.0000     
    182     (1,1475)              8735.6      -8763.8       28.209       0.0000       0.0000       0.0000       0.0000       0.0000       0.0000       0.0000       0.0000     
    183     (1,1385)              8763.8      -8798.4       34.576       0.0000       0.0000       0.0000       0.0000       0.0000       0.0000       0.0000       0.0000     
    184     (1,1383)              8798.4      -8817.2       18.785       0.0000       0.0000       0.0000       0.0000       0.0000       0.0000       0.0000       0.0000     
    185     (1,1292)              8817.2      -8807.8      -9.4090       0.0000       0.0000       0.0000       0.0000       0.0000       0.0000       0.0000       0.0000     
    186     (1,1290)              8807.8      -8770.5      -37.314       0.0000       0.0000       0.0000       0.0000       0.0000       0.0000       0.0000       0.0000     
    187     (1,1201)              8770.5      -8929.6       159.15       0.0000       0.0000       0.0000       0.0000       0.0000       0.0000       0.0000       0.0000     
    188     (1,1199)              8929.6      -9122.4       192.79       0.0000       0.0000       0.0000       0.0000       0.0000       0.0000       0.0000       0.0000     
    189     (1,1196)              9122.4      -9147.6       25.240       0.0000       0.0000       0.0000       0.0000       0.0000       0.0000       0.0000       0.0000     
    190     (1,1115)              9147.6      -9365.9       218.27       0.0000       0.0000       0.0000       0.0000       0.0000       0.0000       0.0000       0.0000     
    191     (1,1113)              9365.9      -9501.2       135.32       0.0000       0.0000       0.0000       0.0000       0.0000       0.0000       0.0000       0.0000     
    192     (1,1112)              9501.2      -9571.5       70.269       0.0000       0.0000       0.0000       0.0000       0.0000       0.0000       0.0000       0.0000     
    193     (1,1033)              9571.5      -9722.0       150.48       0.0000       0.0000       0.0000       0.0000       0.0000       0.0000       0.0000       0.0000     
    194     (1,1031)              9722.0      -9862.6       140.64       0.0000       0.0000       0.0000       0.0000       0.0000       0.0000       0.0000       0.0000     
    195     (1,951)               9862.6      -9897.8       35.156       0.0000       0.0000       0.0000       0.0000       0.0000       0.0000       0.0000       0.0000     
    196     (1,948)               9897.8      -10060.       162.12       0.0000       0.0000       0.0000       0.0000       0.0000       0.0000       0.0000       0.0000     
    197     (1,946)               10060.      -10178.       118.10       0.0000       0.0000       0.0000       0.0000       0.0000       0.0000       0.0000       0.0000     
    198     (1,945)               10178.      -10322.       143.69       0.0000       0.0000       0.0000       0.0000       0.0000       0.0000       0.0000       0.0000     
    199     (1,867)               10322.      -10392.       70.181       0.0000       0.0000       0.0000       0.0000       0.0000       0.0000       0.0000       0.0000     
    200     (1,864)               10392.      -10514.       122.57       0.0000       0.0000       0.0000       0.0000       0.0000       0.0000       0.0000       0.0000     
    201     (1,862)               10514.      -10617.       102.07       0.0000       0.0000       0.0000       0.0000       0.0000       0.0000       0.0000       0.0000     
    202     (1,861)               10617.      -10692.       75.382       0.0000       0.0000       0.0000       0.0000       0.0000       0.0000       0.0000       0.0000     
    203     (1,783)               10692.      -10811.       119.27       0.0000       0.0000       0.0000       0.0000       0.0000       0.0000       0.0000       0.0000     
    204     (1,780)               10811.      -10848.       37.032       0.0000       0.0000       0.0000       0.0000       0.0000       0.0000       0.0000       0.0000     
    205     (1,778)               10848.      -10998.       149.95       0.0000       0.0000       0.0000       0.0000       0.0000       0.0000       0.0000       0.0000     
    206     (1,701)               10998.      -11000.       2.1358       0.0000       0.0000       0.0000       0.0000       0.0000       0.0000       0.0000       0.0000     
    207     (1,700)               11000.      -11131.       130.66       0.0000       0.0000       0.0000       0.0000       0.0000       0.0000       0.0000       0.0000     
    208     (1,698)               11131.      -11156.       24.866       0.0000       0.0000       0.0000       0.0000       0.0000       0.0000       0.0000       0.0000     
    209     (1,695)               11156.      -11243.       86.936       0.0000       0.0000       0.0000       0.0000       0.0000       0.0000       0.0000       0.0000     
    210     (1,619)               11243.      -11322.       79.472       0.0000       0.0000       0.0000       0.0000       0.0000       0.0000       0.0000       0.0000     
    211     (1,618)               11322.      -11397.       74.336       0.0000       0.0000       0.0000       0.0000       0.0000       0.0000       0.0000       0.0000     
    212     (1,616)               11397.      -11502.       105.87       0.0000       0.0000       0.0000       0.0000       0.0000       0.0000       0.0000       0.0000     
    213     (1,613)               11502.      -11540.       37.092       0.0000       0.0000       0.0000       0.0000       0.0000       0.0000       0.0000       0.0000     
    214     (1,538)               11540.      -11614.       74.590       0.0000       0.0000       0.0000       0.0000       0.0000       0.0000       0.0000       0.0000     
    215     (1,536)               11614.      -11755.       140.62       0.0000       0.0000       0.0000       0.0000       0.0000       0.0000       0.0000       0.0000     
    216     (1,535)               11755.      -11936.       181.44       0.0000       0.0000       0.0000       0.0000       0.0000       0.0000       0.0000       0.0000     
    217     (1,532)               11936.      -11939.       3.0944       0.0000       0.0000       0.0000       0.0000       0.0000       0.0000       0.0000       0.0000     
    218     (1,458)               11939.      -12103.       163.58       0.0000       0.0000       0.0000       0.0000       0.0000       0.0000       0.0000       0.0000     
    219     (1,456)               12103.      -12265.       162.18       0.0000       0.0000       0.0000       0.0000       0.0000       0.0000       0.0000       0.0000     
    220     (1,383)               12265.      -12349.       84.175       0.0000       0.0000       0.0000       0.0000       0.0000       0.0000       0.0000       0.0000     
    221     (1,382)               12349.      -12496.       146.59       0.0000       0.0000       0.0000       0.0000       0.0000       0.0000       0.0000       0.0000     
    222     (1,379)               12496.      -12615.       118.70       0.0000       0.0000       0.0000       0.0000       0.0000       0.0000       0.0000       0.0000     
    223     (1,378)               12615.      -12728.       113.38       0.0000       0.0000       0.0000       0.0000       0.0000       0.0000       0.0000       0.0000     
    224     (1,376)               12728.      -12754.       26.240       0.0000       0.0000       0.0000       0.0000       0.0000       0.0000       0.0000       0.0000     
    225     (1,373)               12754.      -12881.       127.12       0.0000       0.0000       0.0000       0.0000       0.0000       0.0000       0.0000       0.0000     
    226     (1,372)               12881.      -12921.       40.252       0.0000       0.0000       0.0000       0.0000       0.0000       0.0000       0.0000       0.0000     
    227     (1,297)               12921.      -13011.       89.354       0.0000       0.0000       0.0000       0.0000       0.0000       0.0000       0.0000       0.0000     
    228     (1,294)               13011.      -13104.       93.334       0.0000       0.0000       0.0000       0.0000       0.0000       0.0000       0.0000       0.0000     
    229     (1,292)               13104.      -13120.       16.127       0.0000       0.0000       0.0000       0.0000       0.0000       0.0000       0.0000       0.0000     
    230     (1,291)               13120.      -13211.       90.560       0.0000       0.0000       0.0000       0.0000       0.0000       0.0000       0.0000       0.0000     
    231     (1,288)               13211.      -13277.       65.933       0.0000       0.0000       0.0000       0.0000       0.0000       0.0000       0.0000       0.0000     
    232     (1,287)               13277.      -13335.       58.232       0.0000       0.0000       0.0000       0.0000       0.0000       0.0000       0.0000       0.0000     
    233     (1,284)               13335.      -13341.       5.8961       0.0000       0.0000       0.0000       0.0000       0.0000       0.0000       0.0000       0.0000     
    234     (1,248)               13341.      -13368.       27.237       0.0000       0.0000       0.0000       0.0000       0.0000       0.0000       0.0000       0.0000     
    235     (1,247)               13368.      -13363.      -5.6564       0.0000       0.0000       0.0000       0.0000       0.0000       0.0000       0.0000       0.0000     
    236     (1,244)               13363.      -13421.       57.997       0.0000       0.0000       0.0000       0.0000       0.0000       0.0000       0.0000       0.0000     
    237     (1,242)               13421.      -13533.       112.77       0.0000       0.0000       0.0000       0.0000       0.0000       0.0000       0.0000       0.0000     
    238     (1,241)               13533.      -13785.       252.15       0.0000       0.0000       0.0000       0.0000       0.0000       0.0000       0.0000       0.0000     
    239     (1,207)               13785.      -13913.       128.01       0.0000       0.0000       0.0000       0.0000       0.0000       0.0000       0.0000       0.0000     
    240     (1,204)               13913.      -14128.       214.46       0.0000       0.0000       0.0000       0.0000       0.0000       0.0000       0.0000       0.0000     
    241     (1,202)               14128.      -14241.       112.87       0.0000       0.0000       0.0000       0.0000       0.0000       0.0000       0.0000       0.0000     
    242     (1,201)               14241.      -14437.       195.93       0.0000       0.0000       0.0000       0.0000       0.0000       0.0000       0.0000       0.0000     
    243     (1,169)               14437.      -14543.       105.97       0.0000       0.0000       0.0000       0.0000       0.0000       0.0000       0.0000       0.0000     
    244     (1,166)               14543.      -14766.       223.78       0.0000       0.0000       0.0000       0.0000       0.0000       0.0000       0.0000       0.0000     
    245     (1,164)               14766.      -14782.       15.902       0.0000       0.0000       0.0000       0.0000       0.0000       0.0000       0.0000       0.0000     
    246     (1,163)               14782.      -15030.       247.68       0.0000       0.0000       0.0000       0.0000       0.0000       0.0000       0.0000       0.0000     
    247     (1,133)               15030.      -15046.       15.958       0.0000       0.0000       0.0000       0.0000       0.0000       0.0000       0.0000       0.0000     
    248     (1,130)               15046.      -15291.       244.71       0.0000       0.0000       0.0000       0.0000       0.0000       0.0000       0.0000       0.0000     
    249     (1,128)               15291.      -15307.       15.882       0.0000       0.0000       0.0000       0.0000       0.0000       0.0000       0.0000       0.0000     
    250     (1,127)               15307.      -15552.       245.29       0.0000       0.0000       0.0000       0.0000       0.0000       0.0000       0.0000       0.0000     
    251     (1,99)                15552.      -15568.       16.134       0.0000       0.0000       0.0000       0.0000       0.0000       0.0000       0.0000       0.0000     
    252     (1,96)                15568.      -15817.       249.27       0.0000       0.0000       0.0000       0.0000       0.0000       0.0000       0.0000       0.0000     
    253     (1,94)                15817.      -15834.       16.361       0.0000       0.0000       0.0000       0.0000       0.0000       0.0000       0.0000       0.0000     
    254     (1,93)                15834.      -16088.       254.21       0.0000       0.0000       0.0000       0.0000       0.0000       0.0000       0.0000       0.0000     
    255     (1,67)                16088.      -16105.       16.883       0.0000       0.0000       0.0000       0.0000       0.0000       0.0000       0.0000       0.0000     
    256     (1,64)                16105.      -16369.       264.22       0.0000       0.0000       0.0000       0.0000       0.0000       0.0000       0.0000       0.0000     
    257     (1,63)                16369.      -16382.       13.184       0.0000       0.0000       0.0000       0.0000       0.0000       0.0000       0.0000       0.0000     
    258     (1,61)                16382.      -16640.       257.38       0.0000       0.0000       0.0000       0.0000       0.0000       0.0000       0.0000       0.0000     
    259     (1,58)                16640.      -16720.       80.339       0.0000       0.0000       0.0000       0.0000       0.0000       0.0000       0.0000       0.0000     
    260     (1,34)                16720.      -17049.       329.02       0.0000       0.0000       0.0000       0.0000       0.0000       0.0000       0.0000       0.0000     
    261     (1,33)                17049.      -17193.       143.77       0.0000       0.0000       0.0000       0.0000       0.0000       0.0000       0.0000       0.0000     
    262     (1,31)                17193.      -17472.       279.22       0.0000       0.0000       0.0000       0.0000       0.0000       0.0000       0.0000       0.0000     
    263     (1,28)                17472.      -17756.       284.16       0.0000       0.0000       0.0000       0.0000       0.0000       0.0000       0.0000       0.0000     
    264     (1,6)                 17756.      -18061.       304.58       0.0000       0.0000       0.0000       0.0000       0.0000       0.0000       0.0000       0.0000     
    265     (1,5)                 18061.       0.0000       378.50       0.0000       0.0000       0.0000       0.0000      -18439.       0.0000       0.0000       0.0000     
 ------------------------------------------------------------------------------------------------------------------------------------------------------------------------------




  SFR BUDGET FOR ENTIRE MODEL AT END OF TIME STEP   48, STRESS PERIOD   2
  ------------------------------------------------------------------------------

     CUMULATIVE SFR      L**3       RATES FOR THIS TIME STEP      L**3/T
     ------------------                 ------------------------

           IN:                                      IN:
           ---                                      ---
                 GWF =    27678259.3738                   GWF =       18957.7119
            RAINFALL =           0.0000              RAINFALL =           0.0000
         EVAPORATION =           0.0000           EVAPORATION =           0.0000
              RUNOFF =           0.0000                RUNOFF =           0.0000
          EXT-INFLOW =     7300000.0000            EXT-INFLOW =        5000.0000
         EXT-OUTFLOW =           0.0000           EXT-OUTFLOW =           0.0000
             STORAGE =           0.0000               STORAGE =           0.0000

            TOTAL IN =    34978259.3738              TOTAL IN =       23957.7119

          OUT:                                     OUT:
          ----                                     ----
                 GWF =     8057167.6298                   GWF =        5518.6080
            RAINFALL =           0.0000              RAINFALL =           0.0000
         EVAPORATION =           0.0000           EVAPORATION =           0.0000
              RUNOFF =           0.0000                RUNOFF =           0.0000
          EXT-INFLOW =           0.0000            EXT-INFLOW =           0.0000
         EXT-OUTFLOW =    26921091.7440           EXT-OUTFLOW =       18439.1039
             STORAGE =           0.0000               STORAGE =           0.0000

           TOTAL OUT =    34978259.3738             TOTAL OUT =       23957.7119

            IN - OUT =       7.4506E-09              IN - OUT =       3.6380E-12

 PERCENT DISCREPANCY =           0.00     PERCENT DISCREPANCY =          -0.00



  VOLUME BUDGET FOR ENTIRE MODEL AT END OF TIME STEP   48, STRESS PERIOD   2
  ---------------------------------------------------------------------------------------------------

     CUMULATIVE VOLUME      L**3       RATES FOR THIS TIME STEP      L**3/T          PACKAGE NAME    
     ------------------                 ------------------------                     ----------------

           IN:                                      IN:
           ---                                      ---
              STO-SS =       2.0712E-08                STO-SS =       4.1237E-13     STORAGE         
              STO-SY =       2.7722E-05                STO-SY =       5.5212E-10     STORAGE         
                 GHB =    24099285.1172                   GHB =       16506.3597     GHB             
                 RCH =      181841.3141                   RCH =         124.5488     RCH             
                 SFR =     8057167.6299                   SFR =        5518.6080     SFR             

            TOTAL IN =    32338294.0612              TOTAL IN =       22149.5165

          OUT:                                     OUT:
          ----                                     ----
              STO-SS =       1.0191E-09                STO-SS =       4.0856E-17     STORAGE         
              STO-SY =       1.3637E-06                STO-SY =       5.5134E-14     STORAGE         
                 GHB =     4660034.6913                   GHB =        3191.8046     GHB             
                 RCH =           0.0000                   RCH =           0.0000     RCH             
                 SFR =    27678259.3736                   SFR =       18957.7119     SFR             

           TOTAL OUT =    32338294.0649             TOTAL OUT =       22149.5165

            IN - OUT =       3.6268E-03              IN - OUT =       4.1122E-07

 PERCENT DISCREPANCY =          -0.00     PERCENT DISCREPANCY =          -0.00




         TIME SUMMARY AT END OF TIME STEP   48 IN STRESS PERIOD    2
                    SECONDS     MINUTES      HOURS       DAYS        YEARS
                    -----------------------------------------------------------
   TIME STEP LENGTH 2.62800E+06  43800.      730.00      30.417     8.32763E-02
 STRESS PERIOD TIME 1.26144E+08 2.10240E+06  35040.      1460.0      3.9973    
         TOTAL TIME 1.26144E+08 2.10240E+06  35040.      1460.0      3.9973    


end timestep

