                                   MODFLOW 6
                U.S. GEOLOGICAL SURVEY MODULAR HYDROLOGIC MODEL
                            VERSION 6.2.1 02/18/2021

   MODFLOW 6 compiled Feb 18 2021 21:14:51 with IFORT compiler (ver. 19.10.3)

This software has been approved for release by the U.S. Geological 
Survey (USGS). Although the software has been subjected to rigorous 
review, the USGS reserves the right to update the software as needed 
pursuant to further analysis and review. No warranty, expressed or 
implied, is made by the USGS or the U.S. Government as to the 
functionality of the software and related material nor shall the 
fact of release constitute any such warranty. Furthermore, the 
software is released on condition that neither the USGS nor the U.S. 
Government shall be held liable for any damages resulting from its 
authorized or unauthorized use. Also refer to the USGS Water 
Resources Software User Rights Notice for complete use, copyright, 
and distribution information.


System command used to initiate simulation:
..\bins\win\mf6

MODFLOW was compiled using uniform precision.

Real Variables
  KIND: 8
  TINY (smallest non-zero value):    2.225074-308
  HUGE (largest value):    1.797693+308
  PRECISION: 15
  BIT SIZE: 64

Integer Variables
  KIND: 4
  HUGE (largest value): 2147483647
  BIT SIZE: 32

Long Integer Variables
  KIND: 8
  HUGE (largest value): 9223372036854775807
  BIT SIZE: 64

Logical Variables
  KIND: 4
  BIT SIZE: 32
 

 OPENED mfsim.nam
 FILE TYPE:NAM   UNIT 1001   STATUS:OLD                 
 FORMAT:FORMATTED              ACCESS:SEQUENTIAL          
 ACTION:READ                

 # File generated by Flopy version 3.3.5 on 01/14/2022 at 16:32:45.

 READING SIMULATION OPTIONS
    SIMULATION WILL CONTINUE EVEN IF THERE IS NONCONVERGENCE.
 END OF SIMULATION OPTIONS

 READING SIMULATION TIMING

 OPENED hagfors_1.tdis
 FILE TYPE:TDIS   UNIT 1002   STATUS:OLD                 
 FORMAT:FORMATTED              ACCESS:SEQUENTIAL          
 ACTION:READ                


 TDIS -- TEMPORAL DISCRETIZATION PACKAGE,
 VERSION 1 : 11/13/2014 - INPUT READ FROM UNIT 1002
 # File generated by Flopy version 3.3.5 on 01/14/2022 at 16:32:45.
 PROCESSING TDIS OPTIONS
    SIMULATION TIME UNIT IS DAYS
    SIMULATION STARTING DATE AND TIME IS 2015-12-31                    
 END OF TDIS OPTIONS
 PROCESSING TDIS DIMENSIONS
    2 STRESS PERIOD(S) IN SIMULATION
 END OF TDIS DIMENSIONS
 PROCESSING TDIS PERIODDATA


 STRESS PERIOD     LENGTH       TIME STEPS     MULTIPLIER FOR DELT
 ----------------------------------------------------------------------------
        1         0.000000          1                    1.000
        2         1460.000         48                    1.000

 PERLEN IS ZERO FOR STRESS PERIOD 1. PERLEN MUST NOT BE ZERO FOR TRANSIENT PERIODS.
 END OF TDIS PERIODDATA
 END OF SIMULATION TIMING

 READING SIMULATION MODELS
    GWF6 model HAGFORS_1 will be created as model 1
 END OF SIMULATION MODELS

 READING SIMULATION EXCHANGES
 END OF SIMULATION EXCHANGES

 READING SOLUTIONGROUP

 Creating solution: SLN_1           

 OPENED hagfors_1.ims
 FILE TYPE:IMS   UNIT 1014   STATUS:OLD                 
 FORMAT:FORMATTED              ACCESS:SEQUENTIAL          
 ACTION:READ                

 END OF SIMULATION SOLUTIONGROUP

 IMS -- ITERATIVE MODEL SOLUTION PACKAGE, VERSION 6, 4/28/2017
         INPUT READ FROM UNIT 1014
 # File generated by Flopy version 3.3.5 on 01/14/2022 at 16:32:45.

 PROCESSING IMS OPTIONS
 SIMPLE OPTION:
 DEFAULT SOLVER INPUT VALUES FOR FAST SOLUTIONS
 END OF IMS OPTIONS

 PROCESSING IMS NONLINEAR
 END OF IMS NONLINEAR DATA
 ***UNDER-RELAXATION WILL NOT BE USED***
 
 ***IMS LINEAR SOLVER WILL BE USED***

 IMSLINEAR -- UNSTRUCTURED LINEAR SOLUTION PACKAGE, VERSION 8, 04/28/2017

 PROCESSING LINEAR DATA
 END OF LINEAR DATA
 
 OUTER ITERATION CONVERGENCE CRITERION    (DVCLOSE) =    0.100000E-01
 MAXIMUM NUMBER OF OUTER ITERATIONS        (MXITER) = 750
 SOLVER PRINTOUT INDEX                     (IPRIMS) = 1
 NONLINEAR ITERATION METHOD            (NONLINMETH) = 0
 LINEAR SOLUTION METHOD                   (LINMETH) = 1

       SOLUTION BY THE BICONJUGATE-GRADIENT STABILIZED METHOD
 ------------------------------------------------------------------
 MAXIMUM OF 750 CALLS OF SOLUTION ROUTINE
 MAXIMUM OF 50 INTERNAL ITERATIONS PER CALL TO SOLUTION ROUTINE
 LINEAR ACCELERATION METHOD            = BCGS      
 MATRIX PRECONDITIONING TYPE           = INCOMPLETE LU       
 MATRIX SCALING APPROACH               = NO SCALING          
 MATRIX REORDERING APPROACH            = ORIGINAL ORDERING        
 NUMBER OF ORTHOGONALIZATIONS          = 0
 HEAD CHANGE CRITERION FOR CLOSURE     =    0.10000E-02
 RESIDUAL CHANGE CRITERION FOR CLOSURE =    0.10000E+00
 RESIDUAL CONVERGENCE OPTION           = 0
 RESIDUAL CONVERGENCE NORM             = INFINITY NORM   
 RELAXATION FACTOR                     =    0.00000E+00



1
                            STRESS PERIOD NO.    1, LENGTH =   0.000000    
                            -----------------------------------------------

                              NUMBER OF TIME STEPS =     1

                               MULTIPLIER FOR DELT =     1.000

                            INITIAL TIME STEP SIZE =   0.000000    



 PSEUDO-TRANSIENT CONTINUATION WILL BE APPLIED TO MODEL 1 ("HAGFORS_1") DURING THIS TIME STEP

 OUTER ITERATION SUMMARY
 ----------------------------------------------------------------------------------------------------------
                                OUTER      INNER                    STEP   MAXIMUM CHANGE MODEL-(CELLID) OR
 OUTER ITERATION STEP       ITERATION  ITERATION  MAXIMUM CHANGE SUCCESS             MODEL-PACKAGE-(NUMBER)
 ----------------------------------------------------------------------------------------------------------
 Model                              1          9       2.0982613                             1_GWF-(1,2354)
 Model                              2          8       1.7802095                             1_GWF-(1,2461)
 Model                              3          8     -0.55650723                             1_GWF-(1,2461)
 Model                              4         12      0.24212527                             1_GWF-(1,1740)
 Model                              5         11  9.04350153E-02                             1_GWF-(1,1420)
 Model                              6         11  2.94022344E-02                             1_GWF-(1,1239)
 Model                              7          5  5.82473385E-03    *PTC                      1_GWF-(1,130)
 Model                              8          2  2.04948846E-03       *                       1_GWF-(1,61)
 Package                            8            -2.64169523E-03       *              1_GWF-SFR-(263)-stage
 ----------------------------------------------------------------------------------------------------------


 8 CALLS TO NUMERICAL SOLUTION IN TIME STEP 1 STRESS PERIOD 1
 66 TOTAL ITERATIONS
1
                            STRESS PERIOD NO.    2, LENGTH =   1460.000    
                            -----------------------------------------------

                              NUMBER OF TIME STEPS =    48

                               MULTIPLIER FOR DELT =     1.000

                            INITIAL TIME STEP SIZE =   30.41667    

 OUTER ITERATION SUMMARY
 ----------------------------------------------------------------------------------------------------------
                                OUTER      INNER                    STEP   MAXIMUM CHANGE MODEL-(CELLID) OR
 OUTER ITERATION STEP       ITERATION  ITERATION  MAXIMUM CHANGE SUCCESS             MODEL-PACKAGE-(NUMBER)
 ----------------------------------------------------------------------------------------------------------
 Model                              1         13 -4.67242294E-02                             1_GWF-(1,2458)
 Model                              2         12 -1.99707768E-02                             1_GWF-(1,2716)
 Model                              3          6 -9.50592547E-03       *                     1_GWF-(1,1715)
 Package                            3                  242212.27                     1_GWF-SFR-(206)-inflow
 Model                              4          7 -5.27501915E-03       *                      1_GWF-(1,242)
 Package                            4                  127556.96                     1_GWF-SFR-(206)-inflow
 Model                              5          3 -2.30174533E-03       *                       1_GWF-(1,64)
 Package                            5                  56921.443                     1_GWF-SFR-(206)-inflow
 Model                              6          2 -8.85605881E-04       *                       1_GWF-(1,64)
 Package                            6                  18285.713                     1_GWF-SFR-(206)-inflow
 Model                              7          1 -2.49465572E-04       *                       1_GWF-(1,96)
 Package                            7                  5734.0754                     1_GWF-SFR-(206)-inflow
 Model                              8          1 -4.73624237E-04       *                      1_GWF-(1,605)
 Package                            8                  1328.2797                     1_GWF-SFR-(206)-inflow
 Model                              9          1 -2.60970700E-04       *                      1_GWF-(1,850)
 Package                            9                  1692.4156                     1_GWF-SFR-(206)-inflow
 Model                             10          2 -1.88614709E-03       *                     1_GWF-(1,1097)
 Package                           10                  388.93508                     1_GWF-SFR-(206)-inflow
 Model                             11          1  7.71978142E-05       *                      1_GWF-(1,142)
 Package                           11                  2209.5136                     1_GWF-SFR-(206)-inflow
 Model                             12          1  9.13695449E-05       *                      1_GWF-(1,110)
 Package                           12                  352.57394                     1_GWF-SFR-(206)-inflow
 Model                             13          1 -1.22517379E-04       *                     1_GWF-(1,1450)
 Package                           13                  157.55260                     1_GWF-SFR-(206)-inflow
 Model                             14          1 -1.05035831E-04       *                     1_GWF-(1,1452)
 Package                           14                  25.667486                      1_GWF-SFR-(46)-inflow
 Model                             15          1 -3.35894555E-05       *                     1_GWF-(1,1271)
 Package                           15                  31.922107                      1_GWF-SFR-(46)-inflow
 Model                             16          1 -4.41036080E-05       *                     1_GWF-(1,1017)
 Package                           16                  5.3899581                      1_GWF-SFR-(46)-inflow
 Model                             17          1 -1.99132534E-05       *                     1_GWF-(1,1270)
 Package                           17                  51.741489                     1_GWF-SFR-(206)-inflow
 Model                             18          1 -4.59004870E-05       *                      1_GWF-(1,930)
 Package                           18                 -4.9273157                     1_GWF-SFR-(206)-inflow
 Model                             19          1 -1.08705815E-05       *                     1_GWF-(1,1368)
 Package                           19                  44.400885                     1_GWF-SFR-(206)-inflow
 Model                             20          1 -4.94850441E-05       *                     1_GWF-(1,1364)
 Package                           20                 -2.9134885                     1_GWF-SFR-(206)-inflow
 Model                             21          1 -5.66095451E-06       *                     1_GWF-(1,1275)
 Package                           21                  38.970889                     1_GWF-SFR-(206)-inflow
 Model                             22          1 -4.33409668E-05       *                     1_GWF-(1,1364)
 Package                           22                  1.6094540                     1_GWF-SFR-(206)-inflow
 Model                             23          1 -2.06600359E-06       *                     1_GWF-(1,1274)
 Package                           23                  30.059677                     1_GWF-SFR-(206)-inflow
 Model                             24          1 -1.31717836E-05       *                     1_GWF-(1,1179)
 Package                           24                  4.1842894                     1_GWF-SFR-(206)-inflow
 Model                             25          1 -1.22927446E-06       *                     1_GWF-(1,1453)
 Package                           25                  11.050541                     1_GWF-SFR-(206)-inflow
 Model                             26          1 -7.45786858E-06       *                     1_GWF-(1,1270)
 Package                           26                 0.39459853                     1_GWF-SFR-(206)-inflow
 Model                             27          1 -9.55044783E-07       *                      1_GWF-(1,610)
 Package                           27                  5.2754637                     1_GWF-SFR-(206)-inflow
 Model                             28          1 -1.39545989E-06       *                     1_GWF-(1,1449)
 Package                           28                 0.70537008                     1_GWF-SFR-(217)-inflow
 Model                             29          1 -6.64218987E-07       *                     1_GWF-(1,1017)
 Package                           29                  1.1257254                     1_GWF-SFR-(217)-inflow
 Model                             30          1 -7.90295502E-07       *                     1_GWF-(1,1270)
 Package                           30                 0.52935320                     1_GWF-SFR-(206)-inflow
 Model                             31          1 -3.41683148E-07       *                     1_GWF-(1,1553)
 Package                           31                 0.29451210                     1_GWF-SFR-(217)-inflow
 Model                             32          1 -5.60770189E-07       *                     1_GWF-(1,1270)
 Package                           32                 0.29475895                     1_GWF-SFR-(206)-inflow
 Model                             33          1 -2.34091772E-07       *                     1_GWF-(1,1553)
 Package                           33                 0.39525829                     1_GWF-SFR-(206)-inflow
 Model                             34          1 -5.10859252E-07       *                     1_GWF-(1,1270)
 Package                           34                 0.11904767                     1_GWF-SFR-(206)-inflow
 Model                             35          1 -1.43760332E-07       *                     1_GWF-(1,1553)
 Package                           35                 0.37697581                     1_GWF-SFR-(206)-inflow
 Model                             36          1 -5.77285221E-07       *                     1_GWF-(1,1270)
 Package                           36             6.31222379E-02                     1_GWF-SFR-(206)-inflow
 Model                             37          1 -7.17123214E-08       *                     1_GWF-(1,1553)
 Package                           37                 0.41489010                     1_GWF-SFR-(206)-inflow
 Model                             38          1 -7.28860186E-07       *                     1_GWF-(1,1270)
 Package                           38             4.03090135E-02                     1_GWF-SFR-(217)-inflow
 Model                             39          1 -1.53690962E-08       *                      1_GWF-(1,186)
 Package                           39                 0.51724272                     1_GWF-SFR-(206)-inflow
 Model                             40          1 -6.27382519E-08       *                     1_GWF-(1,1553)
 Package                           40             2.24825403E-02                     1_GWF-SFR-(206)-inflow
 Model                             41          1 -1.13605836E-08       *                     1_GWF-(1,1270)
 Package                           41             4.04970220E-02                     1_GWF-SFR-(206)-inflow
 Model                             42          1 -5.76812056E-08       *                     1_GWF-(1,1454)
 Package                           42             5.55427871E-03       *             1_GWF-SFR-(206)-inflow
 ----------------------------------------------------------------------------------------------------------


 42 CALLS TO NUMERICAL SOLUTION IN TIME STEP 1 STRESS PERIOD 2
 80 TOTAL ITERATIONS

 OUTER ITERATION SUMMARY
 ----------------------------------------------------------------------------------------------------------
                                OUTER      INNER                    STEP   MAXIMUM CHANGE MODEL-(CELLID) OR
 OUTER ITERATION STEP       ITERATION  ITERATION  MAXIMUM CHANGE SUCCESS             MODEL-PACKAGE-(NUMBER)
 ----------------------------------------------------------------------------------------------------------
 Model                              1         15     -0.69775821                             1_GWF-(1,2463)
 Model                              2         16     -0.99419279                             1_GWF-(1,2467)
 Model                              3         16     -0.62579296                             1_GWF-(1,2354)
 Model                              4         15     -0.33592893                             1_GWF-(1,2355)
 Model                              5         15     -0.26131287                             1_GWF-(1,2356)
 Model                              6         12     -0.15507868                             1_GWF-(1,2357)
 Model                              7         11     -0.10176825                             1_GWF-(1,2357)
 Model                              8          9 -5.98213618E-02                             1_GWF-(1,2357)
 Model                              9          7 -3.79839760E-02                             1_GWF-(1,2360)
 Model                             10          5 -2.43716324E-02                             1_GWF-(1,2360)
 Model                             11          5 -1.56318478E-02                             1_GWF-(1,2360)
 Model                             12          3 -9.97632022E-03       *                     1_GWF-(1,2360)
 Package                           12                  1735.8716                     1_GWF-SFR-(206)-inflow
 Model                             13          5 -6.51512758E-03       *                     1_GWF-(1,2360)
 Package                           13                  956.44418                     1_GWF-SFR-(206)-inflow
 Model                             14          2 -4.94242665E-03       *                     1_GWF-(1,2360)
 Package                           14                  1065.0977                     1_GWF-SFR-(206)-inflow
 Model                             15          2 -2.37576353E-03       *                     1_GWF-(1,2360)
 Package                           15                  559.30386                     1_GWF-SFR-(206)-inflow
 Model                             16          2 -1.65903650E-03       *                     1_GWF-(1,2360)
 Package                           16                  360.64700                     1_GWF-SFR-(206)-inflow
 Model                             17          2 -1.33263108E-03       *                     1_GWF-(1,2360)
 Package                           17                  263.03149                     1_GWF-SFR-(206)-inflow
 Model                             18          1 -8.21916565E-04       *                     1_GWF-(1,2360)
 Package                           18                  206.39407                     1_GWF-SFR-(206)-inflow
 Model                             19          1 -4.38048171E-04       *                     1_GWF-(1,2360)
 Package                           19                  84.551377                     1_GWF-SFR-(206)-inflow
 Model                             20          1 -3.69178514E-04       *                     1_GWF-(1,2360)
 Package                           20                  71.922279                     1_GWF-SFR-(206)-inflow
 Model                             21          1 -3.29932381E-04       *                     1_GWF-(1,2360)
 Package                           21                  64.276789                     1_GWF-SFR-(206)-inflow
 Model                             22          1 -3.01788673E-04       *                     1_GWF-(1,2360)
 Package                           22                  60.675193                     1_GWF-SFR-(206)-inflow
 Model                             23          1 -2.78193434E-04       *                     1_GWF-(1,2360)
 Package                           23                  58.083626                     1_GWF-SFR-(206)-inflow
 Model                             24          1 -2.57777584E-04       *                     1_GWF-(1,2360)
 Package                           24                  56.399488                     1_GWF-SFR-(206)-inflow
 Model                             25          1 -2.39541727E-04       *                     1_GWF-(1,2360)
 Package                           25                  54.946900                     1_GWF-SFR-(206)-inflow
 Model                             26          1 -2.23124843E-04       *                     1_GWF-(1,2360)
 Package                           26                  53.670083                     1_GWF-SFR-(206)-inflow
 Model                             27          1 -2.08191268E-04       *                     1_GWF-(1,2360)
 Package                           27                  52.375130                     1_GWF-SFR-(206)-inflow
 Model                             28          1 -1.94544079E-04       *                     1_GWF-(1,2360)
 Package                           28                  51.051058                     1_GWF-SFR-(206)-inflow
 Model                             29          1 -1.82006670E-04       *                     1_GWF-(1,2360)
 Package                           29                  49.645785                     1_GWF-SFR-(206)-inflow
 Model                             30          1 -1.70450455E-04       *                     1_GWF-(1,2360)
 Package                           30                  48.170461                     1_GWF-SFR-(206)-inflow
 Model                             31          1 -1.59763695E-04       *                     1_GWF-(1,2360)
 Package                           31                  46.621205                     1_GWF-SFR-(206)-inflow
 Model                             32          1 -1.49856625E-04       *                     1_GWF-(1,2360)
 Package                           32                  45.016854                     1_GWF-SFR-(206)-inflow
 Model                             33          1 -1.40651460E-04       *                     1_GWF-(1,2360)
 Package                           33                  43.368643                     1_GWF-SFR-(206)-inflow
 Model                             34          1 -1.32082912E-04       *                     1_GWF-(1,2360)
 Package                           34                  41.695034                     1_GWF-SFR-(206)-inflow
 Model                             35          1 -1.24093881E-04       *                     1_GWF-(1,2360)
 Package                           35                  40.009633                     1_GWF-SFR-(206)-inflow
 Model                             36          1 -1.16634777E-04       *                     1_GWF-(1,2360)
 Package                           36                  38.327296                     1_GWF-SFR-(206)-inflow
 Model                             37          1 -1.09661894E-04       *                     1_GWF-(1,2360)
 Package                           37                  36.659356                     1_GWF-SFR-(206)-inflow
 Model                             38          1 -1.03136714E-04       *                     1_GWF-(1,2360)
 Package                           38                  35.016398                     1_GWF-SFR-(206)-inflow
 Model                             39          1 -9.70248979E-05       *                     1_GWF-(1,2360)
 Package                           39                  33.406333                     1_GWF-SFR-(206)-inflow
 Model                             40          1 -9.12957343E-05       *                     1_GWF-(1,2360)
 Package                           40                  31.835920                     1_GWF-SFR-(206)-inflow
 Model                             41          1 -8.59215583E-05       *                     1_GWF-(1,2360)
 Package                           41                  30.310030                     1_GWF-SFR-(206)-inflow
 Model                             42          1 -8.08773567E-05       *                     1_GWF-(1,2360)
 Package                           42                  28.832487                     1_GWF-SFR-(206)-inflow
 Model                             43          1 -7.61404007E-05       *                     1_GWF-(1,2360)
 Package                           43                  27.405825                     1_GWF-SFR-(206)-inflow
 Model                             44          1 -7.16899601E-05       *                     1_GWF-(1,2360)
 Package                           44                  26.031780                     1_GWF-SFR-(206)-inflow
 Model                             45          1 -6.75070566E-05       *                     1_GWF-(1,2360)
 Package                           45                  24.711239                     1_GWF-SFR-(206)-inflow
 Model                             46          1 -6.35742599E-05       *                     1_GWF-(1,2360)
 Package                           46                  23.444531                     1_GWF-SFR-(206)-inflow
 Model                             47          1 -5.98755133E-05       *                     1_GWF-(1,2360)
 Package                           47                  22.231441                     1_GWF-SFR-(206)-inflow
 Model                             48          1 -5.63959860E-05       *                     1_GWF-(1,2360)
 Package                           48                  21.071391                     1_GWF-SFR-(206)-inflow
 Model                             49          1 -5.31219483E-05       *                     1_GWF-(1,2360)
 Package                           49                  19.963466                     1_GWF-SFR-(206)-inflow
 Model                             50          1 -5.00406600E-05       *                     1_GWF-(1,2360)
 Package                           50                  18.906525                     1_GWF-SFR-(206)-inflow
 Model                             51          1 -4.71402804E-05       *                     1_GWF-(1,2360)
 Package                           51                  17.899236                     1_GWF-SFR-(206)-inflow
 Model                             52          1 -4.44097834E-05       *                     1_GWF-(1,2360)
 Package                           52                  16.940133                     1_GWF-SFR-(206)-inflow
 Model                             53          1 -4.18388872E-05       *                     1_GWF-(1,2360)
 Package                           53                  16.027651                     1_GWF-SFR-(206)-inflow
 Model                             54          1 -3.94179928E-05       *                     1_GWF-(1,2360)
 Package                           54                  15.160160                     1_GWF-SFR-(206)-inflow
 Model                             55          1 -3.71381266E-05       *                     1_GWF-(1,2360)
 Package                           55                  14.335988                     1_GWF-SFR-(206)-inflow
 Model                             56          1 -3.49908914E-05       *                     1_GWF-(1,2360)
 Package                           56                  13.553446                     1_GWF-SFR-(206)-inflow
 Model                             57          1 -3.29684235E-05       *                     1_GWF-(1,2360)
 Package                           57                  12.810839                     1_GWF-SFR-(206)-inflow
 Model                             58          1 -3.10633518E-05       *                     1_GWF-(1,2360)
 Package                           58                  12.106486                     1_GWF-SFR-(206)-inflow
 Model                             59          1 -2.92687631E-05       *                     1_GWF-(1,2360)
 Package                           59                  11.438724                     1_GWF-SFR-(206)-inflow
 Model                             60          1 -2.75781692E-05       *                     1_GWF-(1,2360)
 Package                           60                  10.805920                     1_GWF-SFR-(206)-inflow
 Model                             61          1 -2.59854779E-05       *                     1_GWF-(1,2360)
 Package                           61                  10.206480                     1_GWF-SFR-(206)-inflow
 Model                             62          1 -2.44849656E-05       *                     1_GWF-(1,2360)
 Package                           62                  9.6388478                     1_GWF-SFR-(206)-inflow
 Model                             63          1 -2.30712539E-05       *                     1_GWF-(1,2360)
 Package                           63                  9.1015163                     1_GWF-SFR-(206)-inflow
 Model                             64          1 -2.17392864E-05       *                     1_GWF-(1,2360)
 Package                           64                  8.5930238                     1_GWF-SFR-(206)-inflow
 Model                             65          1 -2.04843079E-05       *                     1_GWF-(1,2360)
 Package                           65                  8.1119595                     1_GWF-SFR-(206)-inflow
 Model                             66          1 -1.93018440E-05       *                     1_GWF-(1,2360)
 Package                           66                  7.6569640                     1_GWF-SFR-(206)-inflow
 Model                             67          1 -1.81876873E-05       *                     1_GWF-(1,2360)
 Package                           67                  7.2267309                     1_GWF-SFR-(206)-inflow
 Model                             68          1 -1.71378767E-05       *                     1_GWF-(1,2360)
 Package                           68                  6.8200035                     1_GWF-SFR-(206)-inflow
 Model                             69          1 -1.61486832E-05       *                     1_GWF-(1,2360)
 Package                           69                  6.4355797                     1_GWF-SFR-(206)-inflow
 Model                             70          1 -1.52165981E-05       *                     1_GWF-(1,2360)
 Package                           70                  6.0723077                     1_GWF-SFR-(206)-inflow
 Model                             71          1 -1.43383167E-05       *                     1_GWF-(1,2360)
 Package                           71                  5.7290848                     1_GWF-SFR-(206)-inflow
 Model                             72          1 -1.35107269E-05       *                     1_GWF-(1,2360)
 Package                           72                  5.4048608                     1_GWF-SFR-(206)-inflow
 Model                             73          1 -1.27308992E-05       *                     1_GWF-(1,2360)
 Package                           73                  5.0986317                     1_GWF-SFR-(206)-inflow
 Model                             74          1 -1.19960732E-05       *                     1_GWF-(1,2360)
 Package                           74                  4.8094409                     1_GWF-SFR-(206)-inflow
 Model                             75          1 -1.13036495E-05       *                     1_GWF-(1,2360)
 Package                           75                  4.5363786                     1_GWF-SFR-(206)-inflow
 Model                             76          1 -1.06511795E-05       *                     1_GWF-(1,2360)
 Package                           76                  4.2785762                     1_GWF-SFR-(206)-inflow
 Model                             77          1 -1.00363568E-05       *                     1_GWF-(1,2360)
 Package                           77                  4.0352117                     1_GWF-SFR-(206)-inflow
 Model                             78          1 -9.45700788E-06       *                     1_GWF-(1,2360)
 Package                           78                  3.8055002                     1_GWF-SFR-(206)-inflow
 Model                             79          1 -8.91108573E-06       *                     1_GWF-(1,2360)
 Package                           79                  3.5886988                     1_GWF-SFR-(206)-inflow
 Model                             80          1 -8.39666137E-06       *                     1_GWF-(1,2360)
 Package                           80                  3.3841011                     1_GWF-SFR-(206)-inflow
 Model                             81          1 -7.91191792E-06       *                     1_GWF-(1,2360)
 Package                           81                  3.1910386                     1_GWF-SFR-(206)-inflow
 Model                             82          1 -7.45514305E-06       *                     1_GWF-(1,2360)
 Package                           82                  3.0088742                     1_GWF-SFR-(206)-inflow
 Model                             83          1 -7.02472275E-06       *                     1_GWF-(1,2360)
 Package                           83                  2.8370070                     1_GWF-SFR-(206)-inflow
 Model                             84          1 -6.61913799E-06       *                     1_GWF-(1,2360)
 Package                           84                  2.6748674                     1_GWF-SFR-(206)-inflow
 Model                             85          1 -6.23695544E-06       *                     1_GWF-(1,2360)
 Package                           85                  2.5219134                     1_GWF-SFR-(206)-inflow
 Model                             86          1 -5.87682516E-06       *                     1_GWF-(1,2360)
 Package                           86                  2.3776358                     1_GWF-SFR-(206)-inflow
 Model                             87          1 -5.53747600E-06       *                     1_GWF-(1,2360)
 Package                           87                  2.2415485                     1_GWF-SFR-(206)-inflow
 Model                             88          1 -5.21770914E-06       *                     1_GWF-(1,2360)
 Package                           88                  2.1131955                     1_GWF-SFR-(206)-inflow
 Model                             89          1 -4.91639514E-06       *                     1_GWF-(1,2360)
 Package                           89                  1.9921417                     1_GWF-SFR-(206)-inflow
 Model                             90          1 -4.63247022E-06       *                     1_GWF-(1,2360)
 Package                           90                  1.8779786                     1_GWF-SFR-(206)-inflow
 Model                             91          1 -4.36493056E-06       *                     1_GWF-(1,2360)
 Package                           91                  1.7703187                     1_GWF-SFR-(206)-inflow
 Model                             92          1 -4.11283165E-06       *                     1_GWF-(1,2360)
 Package                           92                  1.6687960                     1_GWF-SFR-(206)-inflow
 Model                             93          1 -3.87528348E-06       *                     1_GWF-(1,2360)
 Package                           93                  1.5730639                     1_GWF-SFR-(206)-inflow
 Model                             94          1 -3.65144589E-06       *                     1_GWF-(1,2360)
 Package                           94                  1.4827961                     1_GWF-SFR-(206)-inflow
 Model                             95          1 -3.44052842E-06       *                     1_GWF-(1,2360)
 Package                           95                  1.3976832                     1_GWF-SFR-(206)-inflow
 Model                             96          1 -3.24178589E-06       *                     1_GWF-(1,2360)
 Package                           96                  1.3174340                     1_GWF-SFR-(206)-inflow
 Model                             97          1 -3.05451658E-06       *                     1_GWF-(1,2360)
 Package                           97                  1.2417723                     1_GWF-SFR-(206)-inflow
 Model                             98          1 -2.87805742E-06       *                     1_GWF-(1,2360)
 Package                           98                  1.1704381                     1_GWF-SFR-(206)-inflow
 Model                             99          1 -2.71178567E-06       *                     1_GWF-(1,2360)
 Package                           99                  1.1031861                     1_GWF-SFR-(206)-inflow
 Model                            100          1 -2.55511333E-06       *                     1_GWF-(1,2360)
 Package                          100                  1.0397847                     1_GWF-SFR-(206)-inflow
 Model                            101          1 -2.40748679E-06       *                     1_GWF-(1,2360)
 Package                          101                 0.98001304                     1_GWF-SFR-(206)-inflow
 Model                            102          1 -2.26838412E-06       *                     1_GWF-(1,2360)
 Package                          102                 0.92366671                     1_GWF-SFR-(206)-inflow
 Model                            103          1 -2.13731332E-06       *                     1_GWF-(1,2360)
 Package                          103                 0.87054901                     1_GWF-SFR-(206)-inflow
 Model                            104          1 -2.01381135E-06       *                     1_GWF-(1,2360)
 Package                          104                 0.82047758                     1_GWF-SFR-(206)-inflow
 Model                            105          1 -1.89744102E-06       *                     1_GWF-(1,2360)
 Package                          105                 0.77327703                     1_GWF-SFR-(206)-inflow
 Model                            106          1 -1.78779135E-06       *                     1_GWF-(1,2360)
 Package                          106                 0.72878488                     1_GWF-SFR-(206)-inflow
 Model                            107          1 -1.68447369E-06       *                     1_GWF-(1,2360)
 Package                          107                 0.68684471                     1_GWF-SFR-(206)-inflow
 Model                            108          1 -1.58712319E-06       *                     1_GWF-(1,2360)
 Package                          108                 0.64731337                     1_GWF-SFR-(206)-inflow
 Model                            109          1 -1.49539562E-06       *                     1_GWF-(1,2360)
 Package                          109                 0.61005057                     1_GWF-SFR-(206)-inflow
 Model                            110          1 -1.40896609E-06       *                     1_GWF-(1,2360)
 Package                          110                 0.57492828                     1_GWF-SFR-(206)-inflow
 Model                            111          1 -1.32752891E-06       *                     1_GWF-(1,2360)
 Package                          111                 0.54182333                     1_GWF-SFR-(206)-inflow
 Model                            112          1 -1.25079609E-06       *                     1_GWF-(1,2360)
 Package                          112                 0.51062031                     1_GWF-SFR-(206)-inflow
 Model                            113          1 -1.17849569E-06       *                     1_GWF-(1,2360)
 Package                          113                 0.48121081                     1_GWF-SFR-(206)-inflow
 Model                            114          1 -1.11037212E-06       *                     1_GWF-(1,2360)
 Package                          114                 0.45349115                     1_GWF-SFR-(206)-inflow
 Model                            115          1 -1.04618402E-06       *                     1_GWF-(1,2360)
 Package                          115                 0.42736514                     1_GWF-SFR-(206)-inflow
 Model                            116          1 -9.85704702E-07       *                     1_GWF-(1,2360)
 Package                          116                 0.40274197                     1_GWF-SFR-(206)-inflow
 Model                            117          1 -9.28719516E-07       *                     1_GWF-(1,2360)
 Package                          117                 0.37953481                     1_GWF-SFR-(206)-inflow
 Model                            118          1 -8.75026672E-07       *                     1_GWF-(1,2360)
 Package                          118                 0.35766238                     1_GWF-SFR-(206)-inflow
 Model                            119          1 -8.24436682E-07       *                     1_GWF-(1,2360)
 Package                          119                 0.33704820                     1_GWF-SFR-(206)-inflow
 Model                            120          1 -7.76769980E-07       *                     1_GWF-(1,2360)
 Package                          120                 0.31761976                     1_GWF-SFR-(206)-inflow
 Model                            121          1 -7.31857426E-07       *                     1_GWF-(1,2360)
 Package                          121                 0.29931032                     1_GWF-SFR-(206)-inflow
 Model                            122          1 -6.89540769E-07       *                     1_GWF-(1,2360)
 Package                          122                 0.28205396                     1_GWF-SFR-(206)-inflow
 Model                            123          1 -6.49669289E-07       *                     1_GWF-(1,2360)
 Package                          123                 0.26579113                     1_GWF-SFR-(206)-inflow
 Model                            124          1 -6.12102156E-07       *                     1_GWF-(1,2360)
 Package                          124                 0.25046479                     1_GWF-SFR-(206)-inflow
 Model                            125          1 -5.76706157E-07       *                     1_GWF-(1,2360)
 Package                          125                 0.23602074                     1_GWF-SFR-(206)-inflow
 Model                            126          1 -5.43356180E-07       *                     1_GWF-(1,2360)
 Package                          126                 0.22240813                     1_GWF-SFR-(206)-inflow
 Model                            127          1 -5.11933223E-07       *                     1_GWF-(1,2360)
 Package                          127                 0.20958068                     1_GWF-SFR-(206)-inflow
 Model                            128          1 -4.82327408E-07       *                     1_GWF-(1,2360)
 Package                          128                 0.19749103                     1_GWF-SFR-(206)-inflow
 Model                            129          1 -4.54432438E-07       *                     1_GWF-(1,2360)
 Package                          129                 0.18609832                     1_GWF-SFR-(206)-inflow
 Model                            130          1 -4.28150258E-07       *                     1_GWF-(1,2360)
 Package                          130                 0.17536163                     1_GWF-SFR-(206)-inflow
 Model                            131          1 -4.03387247E-07       *                     1_GWF-(1,2360)
 Package                          131                 0.16524414                     1_GWF-SFR-(206)-inflow
 Model                            132          1 -3.80055667E-07       *                     1_GWF-(1,2360)
 Package                          132                 0.15570918                     1_GWF-SFR-(206)-inflow
 Model                            133          1 -3.58073009E-07       *                     1_GWF-(1,2360)
 Package                          133                 0.14672397                     1_GWF-SFR-(206)-inflow
 Model                            134          1 -3.37361314E-07       *                     1_GWF-(1,2360)
 Package                          134                 0.13825649                     1_GWF-SFR-(206)-inflow
 Model                            135          1 -3.17847196E-07       *                     1_GWF-(1,2360)
 Package                          135                 0.13027735                     1_GWF-SFR-(206)-inflow
 Model                            136          1 -2.99461192E-07       *                     1_GWF-(1,2360)
 Package                          136                 0.12275786                     1_GWF-SFR-(206)-inflow
 Model                            137          1 -2.82137989E-07       *                     1_GWF-(1,2360)
 Package                          137                 0.11567234                     1_GWF-SFR-(206)-inflow
 Model                            138          1 -2.65817050E-07       *                     1_GWF-(1,2360)
 Package                          138                 0.10899529                     1_GWF-SFR-(206)-inflow
 Model                            139          1 -2.50439456E-07       *                     1_GWF-(1,2360)
 Package                          139                 0.10270282                     1_GWF-SFR-(206)-inflow
 Model                            140          1 -2.35951291E-07       *                     1_GWF-(1,2360)
 Package                          140             9.67738142E-02                     1_GWF-SFR-(206)-inflow
 Model                            141          1 -2.22301054E-07       *                     1_GWF-(1,2360)
 Package                          141             9.11860710E-02                     1_GWF-SFR-(206)-inflow
 Model                            142          1 -2.09439520E-07       *                     1_GWF-(1,2360)
 Package                          142             8.59211762E-02                     1_GWF-SFR-(206)-inflow
 Model                            143          1 -1.97322493E-07       *                     1_GWF-(1,2360)
 Package                          143             8.09602982E-02                     1_GWF-SFR-(206)-inflow
 Model                            144          1 -1.85905861E-07       *                     1_GWF-(1,2360)
 Package                          144             7.62846884E-02                     1_GWF-SFR-(206)-inflow
 Model                            145          1 -1.75149580E-07       *                     1_GWF-(1,2360)
 Package                          145             7.18796777E-02                     1_GWF-SFR-(206)-inflow
 Model                            146          1 -1.65015280E-07       *                     1_GWF-(1,2360)
 Package                          146             6.77279310E-02                     1_GWF-SFR-(206)-inflow
 Model                            147          1 -1.55467575E-07       *                     1_GWF-(1,2360)
 Package                          147             6.38166664E-02                     1_GWF-SFR-(206)-inflow
 Model                            148          1 -1.46471535E-07       *                     1_GWF-(1,2360)
 Package                          148             6.01305192E-02                     1_GWF-SFR-(206)-inflow
 Model                            149          1 -1.37995897E-07       *                     1_GWF-(1,2360)
 Package                          149             5.66573073E-02                     1_GWF-SFR-(206)-inflow
 Model                            150          1 -1.30010989E-07       *                     1_GWF-(1,2360)
 Package                          150             5.33843351E-02                     1_GWF-SFR-(206)-inflow
 Model                            151          1 -1.22487791E-07       *                     1_GWF-(1,2360)
 Package                          151             5.03004892E-02                     1_GWF-SFR-(206)-inflow
 Model                            152          1 -1.15399416E-07       *                     1_GWF-(1,2360)
 Package                          152             4.73944081E-02                     1_GWF-SFR-(206)-inflow
 Model                            153          1 -1.08721480E-07       *                     1_GWF-(1,2360)
 Package                          153             4.46566450E-02                     1_GWF-SFR-(206)-inflow
 Model                            154          1 -1.02429738E-07       *                     1_GWF-(1,2360)
 Package                          154             4.20765636E-02                     1_GWF-SFR-(206)-inflow
 Model                            155          1 -9.65021059E-08       *                     1_GWF-(1,2360)
 Package                          155             3.96450435E-02                     1_GWF-SFR-(206)-inflow
 Model                            156          1 -9.09170979E-08       *                     1_GWF-(1,2360)
 Package                          156             3.73544273E-02                     1_GWF-SFR-(206)-inflow
 Model                            157          1 -8.56551878E-08       *                     1_GWF-(1,2360)
 Package                          157             3.51955276E-02                     1_GWF-SFR-(206)-inflow
 Model                            158          1 -8.06980722E-08       *                     1_GWF-(1,2360)
 Package                          158             3.31625147E-02                     1_GWF-SFR-(206)-inflow
 Model                            159          1 -7.60276180E-08       *                     1_GWF-(1,2360)
 Package                          159             3.12451887E-02                     1_GWF-SFR-(206)-inflow
 Model                            160          1 -7.16273405E-08       *                     1_GWF-(1,2360)
 Package                          160             2.94401797E-02                     1_GWF-SFR-(206)-inflow
 Model                            161          1 -6.74817500E-08       *                     1_GWF-(1,2360)
 Package                          161             2.77378749E-02                     1_GWF-SFR-(206)-inflow
 Model                            162          1 -6.35757544E-08       *                     1_GWF-(1,2360)
 Package                          162             2.61352637E-02                     1_GWF-SFR-(206)-inflow
 Model                            163          1 -5.98959389E-08       *                     1_GWF-(1,2360)
 Package                          163             2.46246469E-02                     1_GWF-SFR-(206)-inflow
 Model                            164          1 -5.64290872E-08       *                     1_GWF-(1,2360)
 Package                          164             2.32010126E-02                     1_GWF-SFR-(206)-inflow
 Model                            165          1 -5.31628359E-08       *                     1_GWF-(1,2360)
 Package                          165             2.18601700E-02                     1_GWF-SFR-(206)-inflow
 Model                            166          1 -5.00854753E-08       *                     1_GWF-(1,2360)
 Package                          166             2.05963404E-02                     1_GWF-SFR-(206)-inflow
 Model                            167          1 -4.71862336E-08       *                     1_GWF-(1,2360)
 Package                          167             1.94056459E-02                     1_GWF-SFR-(206)-inflow
 Model                            168          1 -4.44549926E-08       *                     1_GWF-(1,2360)
 Package                          168             1.82839576E-02                     1_GWF-SFR-(206)-inflow
 Model                            169          1 -4.18815205E-08       *                     1_GWF-(1,2360)
 Package                          169             1.72267377E-02                     1_GWF-SFR-(206)-inflow
 Model                            170          1 -3.94569781E-08       *                     1_GWF-(1,2360)
 Package                          170             1.62307778E-02                     1_GWF-SFR-(206)-inflow
 Model                            171          1 -3.71731232E-08       *                     1_GWF-(1,2360)
 Package                          171             1.52926119E-02                     1_GWF-SFR-(206)-inflow
 Model                            172          1 -3.50210314E-08       *                     1_GWF-(1,2360)
 Package                          172             1.44080798E-02                     1_GWF-SFR-(206)-inflow
 Model                            173          1 -3.29935119E-08       *                     1_GWF-(1,2360)
 Package                          173             1.35753050E-02                     1_GWF-SFR-(206)-inflow
 Model                            174          1 -3.10836299E-08       *                     1_GWF-(1,2360)
 Package                          174             1.27899618E-02                     1_GWF-SFR-(206)-inflow
 Model                            175          1 -2.92842515E-08       *                     1_GWF-(1,2360)
 Package                          175             1.20505611E-02                     1_GWF-SFR-(206)-inflow
 Model                            176          1 -2.75886975E-08       *                     1_GWF-(1,2360)
 Package                          176             1.13534125E-02                     1_GWF-SFR-(206)-inflow
 Model                            177          1 -2.59916817E-08       *                     1_GWF-(1,2360)
 Package                          177             1.06975390E-02                     1_GWF-SFR-(206)-inflow
 Model                            178          1 -2.44865817E-08       *                     1_GWF-(1,2360)
 Package                          178             1.00779881E-02                     1_GWF-SFR-(206)-inflow
 Model                            179          1 -2.30691057E-08       *                     1_GWF-(1,2360)
 Package                          179             9.49575290E-03       *             1_GWF-SFR-(206)-inflow
 ----------------------------------------------------------------------------------------------------------


 179 CALLS TO NUMERICAL SOLUTION IN TIME STEP 2 STRESS PERIOD 2
 304 TOTAL ITERATIONS

 OUTER ITERATION SUMMARY
 ----------------------------------------------------------------------------------------------------------
                                OUTER      INNER                    STEP   MAXIMUM CHANGE MODEL-(CELLID) OR
 OUTER ITERATION STEP       ITERATION  ITERATION  MAXIMUM CHANGE SUCCESS             MODEL-PACKAGE-(NUMBER)
 ----------------------------------------------------------------------------------------------------------
 Model                              1          9 -2.77398069E-02                             1_GWF-(1,2053)
 Model                              2          5 -2.33076278E-02                             1_GWF-(1,2360)
 Model                              3          5 -1.53601719E-02                             1_GWF-(1,2360)
 Model                              4          3 -9.70606538E-03       *                     1_GWF-(1,2360)
 Package                            4                  3544.7225                     1_GWF-SFR-(206)-inflow
 Model                              5          3 -5.76312387E-03       *                     1_GWF-(1,2360)
 Package                            5                  1565.1932                     1_GWF-SFR-(206)-inflow
 Model                              6          2 -3.77190803E-03       *                     1_GWF-(1,2360)
 Package                            6                  899.01262                     1_GWF-SFR-(206)-inflow
 Model                              7          2 -2.27670056E-03       *                     1_GWF-(1,2360)
 Package                            7                  417.91614                     1_GWF-SFR-(206)-inflow
 Model                              8          2 -1.85739524E-03       *                     1_GWF-(1,2360)
 Package                            8                  331.22998                     1_GWF-SFR-(206)-inflow
 Model                              9          2 -1.51893445E-03       *                     1_GWF-(1,2360)
 Package                            9                  282.38257                     1_GWF-SFR-(206)-inflow
 Model                             10          1 -9.49422161E-04       *                     1_GWF-(1,2360)
 Package                           10                  263.91077                     1_GWF-SFR-(206)-inflow
 Model                             11          1 -5.02480536E-04       *                     1_GWF-(1,2360)
 Package                           11                  114.79194                     1_GWF-SFR-(206)-inflow
 Model                             12          1 -4.25211326E-04       *                     1_GWF-(1,2360)
 Package                           12                  100.00385                     1_GWF-SFR-(206)-inflow
 Model                             13          1 -3.81741829E-04       *                     1_GWF-(1,2360)
 Package                           13                  87.860856                     1_GWF-SFR-(206)-inflow
 Model                             14          1 -3.50928164E-04       *                     1_GWF-(1,2360)
 Package                           14                  82.172315                     1_GWF-SFR-(206)-inflow
 Model                             15          1 -3.24624996E-04       *                     1_GWF-(1,2360)
 Package                           15                  77.492548                     1_GWF-SFR-(206)-inflow
 Model                             16          1 -3.01782490E-04       *                     1_GWF-(1,2360)
 Package                           16                  74.504239                     1_GWF-SFR-(206)-inflow
 Model                             17          1 -2.81154730E-04       *                     1_GWF-(1,2360)
 Package                           17                  71.778849                     1_GWF-SFR-(206)-inflow
 Model                             18          1 -2.62487172E-04       *                     1_GWF-(1,2360)
 Package                           18                  69.487428                     1_GWF-SFR-(206)-inflow
 Model                             19          1 -2.45386668E-04       *                     1_GWF-(1,2360)
 Package                           19                  67.205698                     1_GWF-SFR-(206)-inflow
 Model                             20          1 -2.29684009E-04       *                     1_GWF-(1,2360)
 Package                           20                  65.010312                     1_GWF-SFR-(206)-inflow
 Model                             21          1 -2.15185515E-04       *                     1_GWF-(1,2360)
 Package                           21                  62.768689                     1_GWF-SFR-(206)-inflow
 Model                             22          1 -2.01768754E-04       *                     1_GWF-(1,2360)
 Package                           22                  60.527403                     1_GWF-SFR-(206)-inflow
 Model                             23          1 -1.89314673E-04       *                     1_GWF-(1,2360)
 Package                           23                  58.250742                     1_GWF-SFR-(206)-inflow
 Model                             24          1 -1.77733113E-04       *                     1_GWF-(1,2360)
 Package                           24                  55.971474                     1_GWF-SFR-(206)-inflow
 Model                             25          1 -1.66941640E-04       *                     1_GWF-(1,2360)
 Package                           25                  53.686161                     1_GWF-SFR-(206)-inflow
 Model                             26          1 -1.56872142E-04       *                     1_GWF-(1,2360)
 Package                           26                  51.418093                     1_GWF-SFR-(206)-inflow
 Model                             27          1 -1.47463446E-04       *                     1_GWF-(1,2360)
 Package                           27                  49.172899                     1_GWF-SFR-(206)-inflow
 Model                             28          1 -1.38662698E-04       *                     1_GWF-(1,2360)
 Package                           28                  46.966360                     1_GWF-SFR-(206)-inflow
 Model                             29          1 -1.30422466E-04       *                     1_GWF-(1,2360)
 Package                           29                  44.804884                     1_GWF-SFR-(206)-inflow
 Model                             30          1 -1.22700725E-04       *                     1_GWF-(1,2360)
 Package                           30                  42.698413                     1_GWF-SFR-(206)-inflow
 Model                             31          1 -1.15459559E-04       *                     1_GWF-(1,2360)
 Package                           31                  40.651618                     1_GWF-SFR-(206)-inflow
 Model                             32          1 -1.08663475E-04       *                     1_GWF-(1,2360)
 Package                           32                  38.670150                     1_GWF-SFR-(206)-inflow
 Model                             33          1 -1.02283150E-04       *                     1_GWF-(1,2360)
 Package                           33                  36.760101                     1_GWF-SFR-(206)-inflow
 Model                             34          1 -9.62899954E-05       *                     1_GWF-(1,2360)
 Package                           34                  34.923106                     1_GWF-SFR-(206)-inflow
 Model                             35          1 -9.06584049E-05       *                     1_GWF-(1,2360)
 Package                           35                  33.156540                     1_GWF-SFR-(206)-inflow
 Model                             36          1 -8.53646227E-05       *                     1_GWF-(1,2360)
 Package                           36                  31.459155                     1_GWF-SFR-(206)-inflow
 Model                             37          1 -8.03868405E-05       *                     1_GWF-(1,2360)
 Package                           37                  29.831162                     1_GWF-SFR-(206)-inflow
 Model                             38          1 -7.57049355E-05       *                     1_GWF-(1,2360)
 Package                           38                  28.272969                     1_GWF-SFR-(206)-inflow
 Model                             39          1 -7.13002929E-05       *                     1_GWF-(1,2360)
 Package                           39                  26.784155                     1_GWF-SFR-(206)-inflow
 Model                             40          1 -6.71556572E-05       *                     1_GWF-(1,2360)
 Package                           40                  25.363572                     1_GWF-SFR-(206)-inflow
 Model                             41          1 -6.32549966E-05       *                     1_GWF-(1,2360)
 Package                           41                  24.009632                     1_GWF-SFR-(206)-inflow
 Model                             42          1 -5.95833910E-05       *                     1_GWF-(1,2360)
 Package                           42                  22.720452                     1_GWF-SFR-(206)-inflow
 Model                             43          1 -5.61269326E-05       *                     1_GWF-(1,2360)
 Package                           43                  21.493976                     1_GWF-SFR-(206)-inflow
 Model                             44          1 -5.28726389E-05       *                     1_GWF-(1,2360)
 Package                           44                  20.328029                     1_GWF-SFR-(206)-inflow
 Model                             45          1 -4.98083779E-05       *                     1_GWF-(1,2360)
 Package                           45                  19.220377                     1_GWF-SFR-(206)-inflow
 Model                             46          1 -4.69228017E-05       *                     1_GWF-(1,2360)
 Package                           46                  18.168748                     1_GWF-SFR-(206)-inflow
 Model                             47          1 -4.42052833E-05       *                     1_GWF-(1,2360)
 Package                           47                  17.170867                     1_GWF-SFR-(206)-inflow
 Model                             48          1 -4.16458664E-05       *                     1_GWF-(1,2360)
 Package                           48                  16.224471                     1_GWF-SFR-(206)-inflow
 Model                             49          1 -3.92352144E-05       *                     1_GWF-(1,2360)
 Package                           49                  15.327324                     1_GWF-SFR-(206)-inflow
 Model                             50          1 -3.69645668E-05       *                     1_GWF-(1,2360)
 Package                           50                  14.477229                     1_GWF-SFR-(206)-inflow
 Model                             51          1 -3.48257000E-05       *                     1_GWF-(1,2360)
 Package                           51                  13.672040                     1_GWF-SFR-(206)-inflow
 Model                             52          1 -3.28108902E-05       *                     1_GWF-(1,2360)
 Package                           52                  12.909661                     1_GWF-SFR-(206)-inflow
 Model                             53          1 -3.09128801E-05       *                     1_GWF-(1,2360)
 Package                           53                  12.188066                     1_GWF-SFR-(206)-inflow
 Model                             54          1 -2.91248491E-05       *                     1_GWF-(1,2360)
 Package                           54                  11.505284                     1_GWF-SFR-(206)-inflow
 Model                             55          1 -2.74403828E-05       *                     1_GWF-(1,2360)
 Package                           55                  10.859415                     1_GWF-SFR-(206)-inflow
 Model                             56          1 -2.58534494E-05       *                     1_GWF-(1,2360)
 Package                           56                  10.248630                     1_GWF-SFR-(206)-inflow
 Model                             57          1 -2.43583752E-05       *                     1_GWF-(1,2360)
 Package                           57                  9.6711670                     1_GWF-SFR-(206)-inflow
 Model                             58          1 -2.29498211E-05       *                     1_GWF-(1,2360)
 Package                           58                  9.1253335                     1_GWF-SFR-(206)-inflow
 Model                             59          1 -2.16227630E-05       *                     1_GWF-(1,2360)
 Package                           59                  8.6095096                     1_GWF-SFR-(206)-inflow
 Model                             60          1 -2.03724713E-05       *                     1_GWF-(1,2360)
 Package                           60                  8.1221420                     1_GWF-SFR-(206)-inflow
 Model                             61          1 -1.91944939E-05       *                     1_GWF-(1,2360)
 Package                           61                  7.6617479                     1_GWF-SFR-(206)-inflow
 Model                             62          1 -1.80846403E-05       *                     1_GWF-(1,2360)
 Package                           62                  7.2269081                     1_GWF-SFR-(206)-inflow
 Model                             63          1 -1.70389629E-05       *                     1_GWF-(1,2360)
 Package                           63                  6.8162703                     1_GWF-SFR-(206)-inflow
 Model                             64          1 -1.60537463E-05       *                     1_GWF-(1,2360)
 Package                           64                  6.4285467                     1_GWF-SFR-(206)-inflow
 Model                             65          1 -1.51254899E-05       *                     1_GWF-(1,2360)
 Package                           65                  6.0625079                     1_GWF-SFR-(206)-inflow
 Model                             66          1 -1.42508977E-05       *                     1_GWF-(1,2360)
 Package                           66                  5.7169872                     1_GWF-SFR-(206)-inflow
 Model                             67          1 -1.34268648E-05       *                     1_GWF-(1,2360)
 Package                           67                  5.3908724                     1_GWF-SFR-(206)-inflow
 Model                             68          1 -1.26504670E-05       *                     1_GWF-(1,2360)
 Package                           68                  5.0831093                     1_GWF-SFR-(206)-inflow
 Model                             69          1 -1.19189493E-05       *                     1_GWF-(1,2360)
 Package                           69                  4.7926939                     1_GWF-SFR-(206)-inflow
 Model                             70          1 -1.12297165E-05       *                     1_GWF-(1,2360)
 Package                           70                  4.5186764                     1_GWF-SFR-(206)-inflow
 Model                             71          1 -1.05803245E-05       *                     1_GWF-(1,2360)
 Package                           71                  4.2601532                     1_GWF-SFR-(206)-inflow
 Model                             72          1 -9.96846975E-06       *                     1_GWF-(1,2360)
 Package                           72                  4.0162693                     1_GWF-SFR-(206)-inflow
 Model                             73          1 -9.39198287E-06       *                     1_GWF-(1,2360)
 Package                           73                  3.7862139                     1_GWF-SFR-(206)-inflow
 Model                             74          1 -8.84881970E-06       *                     1_GWF-(1,2360)
 Package                           74                  3.5692180                     1_GWF-SFR-(206)-inflow
 Model                             75          1 -8.33705377E-06       *                     1_GWF-(1,2360)
 Package                           75                  3.3645544                     1_GWF-SFR-(206)-inflow
 Model                             76          1 -7.85487126E-06       *                     1_GWF-(1,2360)
 Package                           76                  3.1715349                     1_GWF-SFR-(206)-inflow
 Model                             77          1 -7.40056282E-06       *                     1_GWF-(1,2360)
 Package                           77                  2.9895070                     1_GWF-SFR-(206)-inflow
 Model                             78          1 -6.97251653E-06       *                     1_GWF-(1,2360)
 Package                           78                  2.8178549                     1_GWF-SFR-(206)-inflow
 Model                             79          1 -6.56921620E-06       *                     1_GWF-(1,2360)
 Package                           79                  2.6559961                     1_GWF-SFR-(206)-inflow
 Model                             80          1 -6.18923090E-06       *                     1_GWF-(1,2360)
 Package                           80                  2.5033769                     1_GWF-SFR-(206)-inflow
 Model                             81          1 -5.83121377E-06       *                     1_GWF-(1,2360)
 Package                           81                  2.3594791                     1_GWF-SFR-(206)-inflow
 Model                             82          1 -5.49389537E-06       *                     1_GWF-(1,2360)
 Package                           82                  2.2238082                     1_GWF-SFR-(206)-inflow
 Model                             83          1 -5.17607958E-06       *                     1_GWF-(1,2360)
 Package                           83                  2.0958993                     1_GWF-SFR-(206)-inflow
 Model                             84          1 -4.87663908E-06       *                     1_GWF-(1,2360)
 Package                           84                  1.9753120                     1_GWF-SFR-(206)-inflow
 Model                             85          1 -4.59451249E-06       *                     1_GWF-(1,2360)
 Package                           85                  1.8616337                     1_GWF-SFR-(206)-inflow
 Model                             86          1 -4.32869899E-06       *                     1_GWF-(1,2360)
 Package                           86                  1.7544682                     1_GWF-SFR-(206)-inflow
 Model                             87          1 -4.07825596E-06       *                     1_GWF-(1,2360)
 Package                           87                  1.6534492                     1_GWF-SFR-(206)-inflow
 Model                             88          1 -3.84229503E-06       *                     1_GWF-(1,2360)
 Package                           88                  1.5582231                     1_GWF-SFR-(206)-inflow
 Model                             89          1 -3.61997954E-06       *                     1_GWF-(1,2360)
 Package                           89                  1.4684635                     1_GWF-SFR-(206)-inflow
 Model                             90          1 -3.41052043E-06       *                     1_GWF-(1,2360)
 Package                           90                  1.3838561                     1_GWF-SFR-(206)-inflow
 Model                             91          1 -3.21317452E-06       *                     1_GWF-(1,2360)
 Package                           91                  1.3041090                     1_GWF-SFR-(206)-inflow
 Model                             92          1 -3.02724237E-06       *                     1_GWF-(1,2360)
 Package                           92                  1.2289431                     1_GWF-SFR-(206)-inflow
 Model                             93          1 -2.85206377E-06       *                     1_GWF-(1,2360)
 Package                           93                  1.1580975                     1_GWF-SFR-(206)-inflow
 Model                             94          1 -2.68701686E-06       *                     1_GWF-(1,2360)
 Package                           94                  1.0913248                     1_GWF-SFR-(206)-inflow
 Model                             95          1 -2.53151669E-06       *                     1_GWF-(1,2360)
 Package                           95                  1.0283926                     1_GWF-SFR-(206)-inflow
 Model                             96          1 -2.38501079E-06       *                     1_GWF-(1,2360)
 Package                           96                 0.96907984                     1_GWF-SFR-(206)-inflow
 Model                             97          1 -2.24697965E-06       *                     1_GWF-(1,2360)
 Package                           97                 0.91318097                     1_GWF-SFR-(206)-inflow
 Model                             98          1 -2.11693254E-06       *                     1_GWF-(1,2360)
 Package                           98                 0.86049836                     1_GWF-SFR-(206)-inflow
 Model                             99          1 -1.99440930E-06       *                     1_GWF-(1,2360)
 Package                           99                 0.81084992                     1_GWF-SFR-(206)-inflow
 Model                            100          1 -1.87897376E-06       *                     1_GWF-(1,2360)
 Package                          100                 0.76405847                     1_GWF-SFR-(206)-inflow
 Model                            101          1 -1.77021639E-06       *                     1_GWF-(1,2360)
 Package                          101                 0.71996326                     1_GWF-SFR-(206)-inflow
 Model                            102          1 -1.66775109E-06       *                     1_GWF-(1,2360)
 Package                          102                 0.67840791                     1_GWF-SFR-(206)-inflow
 Model                            103          1 -1.57121409E-06       *                     1_GWF-(1,2360)
 Package                          103                 0.63924666                     1_GWF-SFR-(206)-inflow
 Model                            104          1 -1.48026277E-06       *                     1_GWF-(1,2360)
 Package                          104                 0.60234237                     1_GWF-SFR-(206)-inflow
 Model                            105          1 -1.39457342E-06       *                     1_GWF-(1,2360)
 Package                          105                 0.56756494                     1_GWF-SFR-(206)-inflow
 Model                            106          1 -1.31384294E-06       *                     1_GWF-(1,2360)
 Package                          106                 0.53479275                     1_GWF-SFR-(206)-inflow
 Model                            107          1 -1.23778301E-06       *                     1_GWF-(1,2360)
 Package                          107                 0.50390899                     1_GWF-SFR-(206)-inflow
 Model                            108          1 -1.16612532E-06       *                     1_GWF-(1,2360)
 Package                          108                 0.47480731                     1_GWF-SFR-(206)-inflow
 Model                            109          1 -1.09861358E-06       *                     1_GWF-(1,2360)
 Package                          109                 0.44738266                     1_GWF-SFR-(206)-inflow
 Model                            110          1 -1.03500898E-06       *                     1_GWF-(1,2360)
 Package                          110                 0.42154134                     1_GWF-SFR-(206)-inflow
 Model                            111          1 -9.75085186E-07       *                     1_GWF-(1,2360)
 Package                          111                 0.39718929                     1_GWF-SFR-(206)-inflow
 Model                            112          1 -9.18629411E-07       *                     1_GWF-(1,2360)
 Package                          112                 0.37424316                     1_GWF-SFR-(206)-inflow
 Model                            113          1 -8.65440967E-07       *                     1_GWF-(1,2360)
 Package                          113                 0.35262087                     1_GWF-SFR-(206)-inflow
 Model                            114          1 -8.15330765E-07       *                     1_GWF-(1,2360)
 Package                          114                 0.33224619                     1_GWF-SFR-(206)-inflow
 Model                            115          1 -7.68121197E-07       *                     1_GWF-(1,2360)
 Package                          115                 0.31304789                     1_GWF-SFR-(206)-inflow
[...]
 Model                             93          1 -4.33982871E-06       *                     1_GWF-(1,2360)
 Package                           93                  1.7615578                     1_GWF-SFR-(206)-inflow
 Model                             94          1 -4.08919703E-06       *                     1_GWF-(1,2360)
 Package                           94                  1.6605088                     1_GWF-SFR-(206)-inflow
 Model                             95          1 -3.85303048E-06       *                     1_GWF-(1,2360)
 Package                           95                  1.5652295                     1_GWF-SFR-(206)-inflow
 Model                             96          1 -3.63049315E-06       *                     1_GWF-(1,2360)
 Package                           96                  1.4753904                     1_GWF-SFR-(206)-inflow
 Model                             97          1 -3.42080040E-06       *                     1_GWF-(1,2360)
 Package                           97                  1.3906864                     1_GWF-SFR-(206)-inflow
 Model                             98          1 -3.22321065E-06       *                     1_GWF-(1,2360)
 Package                           98                  1.3108241                     1_GWF-SFR-(206)-inflow
 Model                             99          1 -3.03702581E-06       *                     1_GWF-(1,2360)
 Package                           99                  1.2355307                     1_GWF-SFR-(206)-inflow
 Model                            100          1 -2.86158863E-06       *                     1_GWF-(1,2360)
 Package                          100                  1.1645456                     1_GWF-SFR-(206)-inflow
 Model                            101          1 -2.69627878E-06       *                     1_GWF-(1,2360)
 Package                          101                  1.0976242                     1_GWF-SFR-(206)-inflow
 Model                            102          1 -2.54051216E-06       *                     1_GWF-(1,2360)
 Package                          102                  1.0345352                     1_GWF-SFR-(206)-inflow
 Model                            103          1 -2.39373850E-06       *                     1_GWF-(1,2360)
 Package                          103                 0.97506044                     1_GWF-SFR-(206)-inflow
 Model                            104          1 -2.25543866E-06       *                     1_GWF-(1,2360)
 Package                          104                 0.91899428                     1_GWF-SFR-(206)-inflow
 Model                            105          1 -2.12512387E-06       *                     1_GWF-(1,2360)
 Package                          105                 0.86614220                     1_GWF-SFR-(206)-inflow
 Model                            106          1 -2.00233350E-06       *                     1_GWF-(1,2360)
 Package                          106                 0.81632164                     1_GWF-SFR-(206)-inflow
 Model                            107          1 -1.88663341E-06       *                     1_GWF-(1,2360)
 Package                          107                 0.76935822                     1_GWF-SFR-(206)-inflow
 Model                            108          1 -1.77761461E-06       *                     1_GWF-(1,2360)
 Package                          108                 0.72508980                     1_GWF-SFR-(206)-inflow
 Model                            109          1 -1.67489117E-06       *                     1_GWF-(1,2360)
 Package                          109                 0.68336181                     1_GWF-SFR-(206)-inflow
 Model                            110          1 -1.57810038E-06       *                     1_GWF-(1,2360)
 Package                          110                 0.64402986                     1_GWF-SFR-(206)-inflow
 Model                            111          1 -1.48689935E-06       *                     1_GWF-(1,2360)
 Package                          111                 0.60695581                     1_GWF-SFR-(206)-inflow
 Model                            112          1 -1.40096586E-06       *                     1_GWF-(1,2360)
 Package                          112                 0.57201170                     1_GWF-SFR-(206)-inflow
 Model                            113          1 -1.31999576E-06       *                     1_GWF-(1,2360)
 Package                          113                 0.53907498                     1_GWF-SFR-(206)-inflow
 Model                            114          1 -1.24370234E-06       *                     1_GWF-(1,2360)
 Package                          114                 0.50803071                     1_GWF-SFR-(206)-inflow
 Model                            115          1 -1.17181651E-06       *                     1_GWF-(1,2360)
 Package                          115                 0.47877044                     1_GWF-SFR-(206)-inflow
 Model                            116          1 -1.10408254E-06       *                     1_GWF-(1,2360)
 Package                          116                 0.45119220                     1_GWF-SFR-(206)-inflow
 Model                            117          1 -1.04026211E-06       *                     1_GWF-(1,2360)
 Package                          117                 0.42519984                     1_GWF-SFR-(206)-inflow
 Model                            118          1 -9.80127936E-07       *                     1_GWF-(1,2360)
 Package                          118                 0.40070128                     1_GWF-SFR-(206)-inflow
 Model                            119          1 -9.23468406E-07       *                     1_GWF-(1,2360)
 Package                          119                 0.37761291                     1_GWF-SFR-(206)-inflow
 Model                            120          1 -8.70082289E-07       *                     1_GWF-(1,2360)
 Package                          120                 0.35585157                     1_GWF-SFR-(206)-inflow
 Model                            121          1 -8.19780865E-07       *                     1_GWF-(1,2360)
 Package                          121                 0.33534300                     1_GWF-SFR-(206)-inflow
 Model                            122          1 -7.72385846E-07       *                     1_GWF-(1,2360)
 Package                          122                 0.31601368                     1_GWF-SFR-(206)-inflow
 Model                            123          1 -7.27729201E-07       *                     1_GWF-(1,2360)
 Package                          123                 0.29779730                     1_GWF-SFR-(206)-inflow
 Model                            124          1 -6.85653390E-07       *                     1_GWF-(1,2360)
 Package                          124                 0.28062923                     1_GWF-SFR-(206)-inflow
 Model                            125          1 -6.46008658E-07       *                     1_GWF-(1,2360)
 Package                          125                 0.26444938                     1_GWF-SFR-(206)-inflow
 Model                            126          1 -6.08655171E-07       *                     1_GWF-(1,2360)
 Package                          126                 0.24920109                     1_GWF-SFR-(206)-inflow
 Model                            127          1 -5.73460738E-07       *                     1_GWF-(1,2360)
 Package                          127                 0.23483049                     1_GWF-SFR-(206)-inflow
 Model                            128          1 -5.40299993E-07       *                     1_GWF-(1,2360)
 Package                          128                 0.22128760                     1_GWF-SFR-(206)-inflow
 Model                            129          1 -5.09055496E-07       *                     1_GWF-(1,2360)
 Package                          129                 0.20852493                     1_GWF-SFR-(206)-inflow
 Model                            130          1 -4.79617796E-07       *                     1_GWF-(1,2360)
 Package                          130                 0.19649744                     1_GWF-SFR-(206)-inflow
 Model                            131          1 -4.51880908E-07       *                     1_GWF-(1,2360)
 Package                          131                 0.18516224                     1_GWF-SFR-(206)-inflow
 Model                            132          1 -4.25747459E-07       *                     1_GWF-(1,2360)
 Package                          132                 0.17448051                     1_GWF-SFR-(206)-inflow
 Model                            133          1 -4.01124595E-07       *                     1_GWF-(1,2360)
 Package                          133                 0.16441441                     1_GWF-SFR-(206)-inflow
 Model                            134          1 -3.77925090E-07       *                     1_GWF-(1,2360)
 Package                          134                 0.15492801                     1_GWF-SFR-(206)-inflow
 Model                            135          1 -3.56066977E-07       *                     1_GWF-(1,2360)
 Package                          135                 0.14598808                     1_GWF-SFR-(206)-inflow
 Model                            136          1 -3.35472095E-07       *                     1_GWF-(1,2360)
 Package                          136                 0.13756369                     1_GWF-SFR-(206)-inflow
 Model                            137          1 -3.16068395E-07       *                     1_GWF-(1,2360)
 Package                          137                 0.12962542                     1_GWF-SFR-(206)-inflow
 Model                            138          1 -2.97786102E-07       *                     1_GWF-(1,2360)
 Package                          138                 0.12214371                     1_GWF-SFR-(206)-inflow
 Model                            139          1 -2.80561011E-07       *                     1_GWF-(1,2360)
 Package                          139                 0.11509426                     1_GWF-SFR-(206)-inflow
 Model                            140          1 -2.64331732E-07       *                     1_GWF-(1,2360)
 Package                          140                 0.10845013                     1_GWF-SFR-(206)-inflow
 Model                            141          1 -2.49040710E-07       *                     1_GWF-(1,2360)
 Package                          141                 0.10219048                     1_GWF-SFR-(206)-inflow
 Model                            142          1 -2.34634172E-07       *                     1_GWF-(1,2360)
 Package                          142             9.62910244E-02                     1_GWF-SFR-(206)-inflow
 Model                            143          1 -2.21060844E-07       *                     1_GWF-(1,2360)
 Package                          143             9.07319144E-02                     1_GWF-SFR-(206)-inflow
 Model                            144          1 -2.08271956E-07       *                     1_GWF-(1,2360)
 Package                          144             8.54931631E-02                     1_GWF-SFR-(206)-inflow
 Model                            145          1 -1.96222544E-07       *                     1_GWF-(1,2360)
 Package                          145             8.05570564E-02                     1_GWF-SFR-(206)-inflow
 Model                            146          1 -1.84870430E-07       *                     1_GWF-(1,2360)
 Package                          146             7.59053107E-02                     1_GWF-SFR-(206)-inflow
 Model                            147          1 -1.74174517E-07       *                     1_GWF-(1,2360)
 Package                          147             7.15223207E-02                     1_GWF-SFR-(206)-inflow
 Model                            148          1 -1.64097486E-07       *                     1_GWF-(1,2360)
 Package                          148             6.73918265E-02                     1_GWF-SFR-(206)-inflow
 Model                            149          1 -1.54602901E-07       *                     1_GWF-(1,2360)
 Package                          149             6.34998258E-02                     1_GWF-SFR-(206)-inflow
 Model                            150          1 -1.45657452E-07       *                     1_GWF-(1,2360)
 Package                          150             5.98326204E-02                     1_GWF-SFR-(206)-inflow
 Model                            151          1 -1.37229677E-07       *                     1_GWF-(1,2360)
 Package                          151             5.63764380E-02                     1_GWF-SFR-(206)-inflow
 Model                            152          1 -1.29289106E-07       *                     1_GWF-(1,2360)
 Package                          152             5.31203684E-02                     1_GWF-SFR-(206)-inflow
 Model                            153          1 -1.21808029E-07       *                     1_GWF-(1,2360)
 Package                          153             5.00516376E-02                     1_GWF-SFR-(206)-inflow
 Model                            154          1 -1.14759473E-07       *                     1_GWF-(1,2360)
 Package                          154             4.71602858E-02                     1_GWF-SFR-(206)-inflow
 Model                            155          1 -1.08118712E-07       *                     1_GWF-(1,2360)
 Package                          155             4.44359614E-02                     1_GWF-SFR-(206)-inflow
 Model                            156          1 -1.01862412E-07       *                     1_GWF-(1,2360)
 Package                          156             4.18685721E-02                     1_GWF-SFR-(206)-inflow
 Model                            157          1 -9.59676072E-08       *                     1_GWF-(1,2360)
 Package                          157             3.94496624E-02                     1_GWF-SFR-(206)-inflow
 Model                            158          1 -9.04136641E-08       *                     1_GWF-(1,2360)
 Package                          158             3.71704129E-02                     1_GWF-SFR-(206)-inflow
 Model                            159          1 -8.51816822E-08       *                     1_GWF-(1,2360)
 Package                          159             3.50224941E-02                     1_GWF-SFR-(206)-inflow
 Model                            160          1 -8.02518798E-08       *                     1_GWF-(1,2360)
 Package                          160             3.29988494E-02                     1_GWF-SFR-(206)-inflow
 Model                            161          1 -7.56074883E-08       *                     1_GWF-(1,2360)
 Package                          161             3.10920024E-02                     1_GWF-SFR-(206)-inflow
 Model                            162          1 -7.12317956E-08       *                     1_GWF-(1,2360)
 Package                          162             2.92950100E-02                     1_GWF-SFR-(206)-inflow
 Model                            163          1 -6.71091982E-08       *                     1_GWF-(1,2360)
 Package                          163             2.76021231E-02                     1_GWF-SFR-(206)-inflow
 Model                            164          1 -6.32248884E-08       *                     1_GWF-(1,2360)
 Package                          164             2.60067662E-02                     1_GWF-SFR-(206)-inflow
 Model                            165          1 -5.95656786E-08       *                     1_GWF-(1,2360)
 Package                          165             2.45041837E-02                     1_GWF-SFR-(206)-inflow
 Model                            166          1 -5.61178126E-08       *                     1_GWF-(1,2360)
 Package                          166             2.30872946E-02                     1_GWF-SFR-(206)-inflow
 Model                            167          1 -5.28699502E-08       *                     1_GWF-(1,2360)
 Package                          167             2.17535095E-02                     1_GWF-SFR-(206)-inflow
 Model                            168          1 -4.98096426E-08       *                     1_GWF-(1,2360)
 Package                          168             2.04955268E-02                     1_GWF-SFR-(206)-inflow
 Model                            169          1 -4.69266581E-08       *                     1_GWF-(1,2360)
 Package                          169             1.93110902E-02                     1_GWF-SFR-(206)-inflow
 Model                            170          1 -4.42103101E-08       *                     1_GWF-(1,2360)
 Package                          170             1.81940356E-02                     1_GWF-SFR-(206)-inflow
 Model                            171          1 -4.16511057E-08       *                     1_GWF-(1,2360)
 Package                          171             1.71427433E-02                     1_GWF-SFR-(206)-inflow
 Model                            172          1 -3.92404331E-08       *                     1_GWF-(1,2360)
 Package                          172             1.61518443E-02                     1_GWF-SFR-(206)-inflow
 Model                            173          1 -3.69687143E-08       *                     1_GWF-(1,2360)
 Package                          173             1.52176189E-02                     1_GWF-SFR-(206)-inflow
 Model                            174          1 -3.48286449E-08       *                     1_GWF-(1,2360)
 Package                          174             1.43381477E-02                     1_GWF-SFR-(206)-inflow
 Model                            175          1 -3.28127499E-08       *                     1_GWF-(1,2360)
 Package                          175             1.35091530E-02                     1_GWF-SFR-(206)-inflow
 Model                            176          1 -3.09130996E-08       *                     1_GWF-(1,2360)
 Package                          176             1.27275835E-02                     1_GWF-SFR-(206)-inflow
 Model                            177          1 -2.91235267E-08       *                     1_GWF-(1,2360)
 Package                          177             1.19919561E-02                     1_GWF-SFR-(206)-inflow
 Model                            178          1 -2.74373804E-08       *                     1_GWF-(1,2360)
 Package                          178             1.12984998E-02                     1_GWF-SFR-(206)-inflow
 Model                            179          1 -2.58490047E-08       *                     1_GWF-(1,2360)
 Package                          179             1.06450078E-02                     1_GWF-SFR-(206)-inflow
 Model                            180          1 -2.43527154E-08       *                     1_GWF-(1,2360)
 Package                          180             1.00296816E-02                     1_GWF-SFR-(206)-inflow
 Model                            181          1 -2.29427712E-08       *                     1_GWF-(1,2360)
 Package                          181             9.44908803E-03       *             1_GWF-SFR-(206)-inflow
 ----------------------------------------------------------------------------------------------------------


 181 CALLS TO NUMERICAL SOLUTION IN TIME STEP 48 STRESS PERIOD 2
 316 TOTAL ITERATIONS

 MEMORY MANAGER TOTAL STORAGE BY DATA TYPE, IN MEGABYTES
 -------------------------------
                    ALLOCATED   
 DATA TYPE           MEMORY     
 -------------------------------
 Character        0.13646500    
 Logical          4.40000000E-05
 Integer          0.65243200    
 Real             1.6521360     
 -------------------------------
 Total            2.4410770     
 -------------------------------


 
 Run end date and time (yyyy/mm/dd hh:mm:ss): 2022/01/14 16:34:23
 Elapsed run time:  4.302 Seconds
 Normal termination of simulation.
