                                   MODFLOW 6
                U.S. GEOLOGICAL SURVEY MODULAR HYDROLOGIC MODEL
                          GROUNDWATER FLOW MODEL (GWF)
                            VERSION 6.2.1 02/18/2021

   MODFLOW 6 compiled Feb 18 2021 21:14:51 with IFORT compiler (ver. 19.10.3)

This software has been approved for release by the U.S. Geological 
Survey (USGS). Although the software has been subjected to rigorous 
review, the USGS reserves the right to update the software as needed 
pursuant to further analysis and review. No warranty, expressed or 
implied, is made by the USGS or the U.S. Government as to the 
functionality of the software and related material nor shall the 
fact of release constitute any such warranty. Furthermore, the 
software is released on condition that neither the USGS nor the U.S. 
Government shall be held liable for any damages resulting from its 
authorized or unauthorized use. Also refer to the USGS Water 
Resources Software User Rights Notice for complete use, copyright, 
and distribution information.


System command used to initiate simulation:
..\bins\win\mf6

MODFLOW was compiled using uniform precision.

Real Variables
  KIND: 8
  TINY (smallest non-zero value):    2.225074-308
  HUGE (largest value):    1.797693+308
  PRECISION: 15
  BIT SIZE: 64

Integer Variables
  KIND: 4
  HUGE (largest value): 2147483647
  BIT SIZE: 32

Long Integer Variables
  KIND: 8
  HUGE (largest value): 9223372036854775807
  BIT SIZE: 64

Logical Variables
  KIND: 4
  BIT SIZE: 32
 

 OPENED .\experimental.disv
 FILE TYPE:DISV6                  UNIT 1005   STATUS:OLD                 
 FORMAT:FORMATTED              ACCESS:SEQUENTIAL          
 ACTION:READ                


 OPENED .\experimental.ic
 FILE TYPE:IC6                    UNIT 1006   STATUS:OLD                 
 FORMAT:FORMATTED              ACCESS:SEQUENTIAL          
 ACTION:READ                


 OPENED .\experimental.npf
 FILE TYPE:NPF6                   UNIT 1007   STATUS:OLD                 
 FORMAT:FORMATTED              ACCESS:SEQUENTIAL          
 ACTION:READ                


 OPENED .\experimental.oc
 FILE TYPE:OC6                    UNIT 1008   STATUS:OLD                 
 FORMAT:FORMATTED              ACCESS:SEQUENTIAL          
 ACTION:READ                


 OPENED .\experimental.sto
 FILE TYPE:STO6                   UNIT 1009   STATUS:OLD                 
 FORMAT:FORMATTED              ACCESS:SEQUENTIAL          
 ACTION:READ                


 OPENED .\experimental.ghb
 FILE TYPE:GHB6                   UNIT 1010   STATUS:OLD                 
 FORMAT:FORMATTED              ACCESS:SEQUENTIAL          
 ACTION:READ                


 OPENED .\experimental.rch
 FILE TYPE:RCH6                   UNIT 1011   STATUS:OLD                 
 FORMAT:FORMATTED              ACCESS:SEQUENTIAL          
 ACTION:READ                


 OPENED .\experimental.sfr
 FILE TYPE:SFR6                   UNIT 1012   STATUS:OLD                 
 FORMAT:FORMATTED              ACCESS:SEQUENTIAL          
 ACTION:READ                


 OPENED .\experimental.obs
 FILE TYPE:OBS6                   UNIT 1013   STATUS:OLD                 
 FORMAT:FORMATTED              ACCESS:SEQUENTIAL          
 ACTION:READ                

 NAMEFILE OPTIONS:
    FLOWS WILL BE SAVED TO BUDGET FILE SPECIFIED IN OUTPUT CONTROL
    NEWTON-RAPHSON method enabled for the model.
    NEWTON-RAPHSON UNDER-RELAXATION based on the bottom elevation of the model will be applied to the model.

 DISV -- VERTEX GRID DISCRETIZATION PACKAGE, VERSION 1 : 12/23/2015 - INPUT READ FROM UNIT 1005


 # File generated by Flopy version 3.3.5 on 11/06/2021 at 11:40:47.

 PROCESSING DISCRETIZATION OPTIONS
    MODEL LENGTH UNIT IS METERS
 END OF DISCRETIZATION OPTIONS

 PROCESSING DISCRETIZATION DIMENSIONS
   NLAY = 3
   NCPL = 3135
   NVERT = 3386
 END OF DISCRETIZATION DIMENSIONS

 PROCESSING GRIDDATA
 END PROCESSING GRIDDATA

 PROCESSING VERTICES
   SUCCESSFULLY READ 3386 (X,Y) COORDINATES
   MINIMUM X COORDINATE =     426888.873000000    
   MAXIMUM X COORDINATE =     427652.548000000    
   MINIMUM Y COORDINATE =     6654697.49000000    
   MAXIMUM Y COORDINATE =     6655291.46000000    
 END PROCESSING VERTICES

 PROCESSING CELL2D
   SUCCESSFULLY READ 3135 CELL2D INFORMATION ENTRIES
   MINIMUM X CELL CENTER =     426895.944000000    
   MAXIMUM X CELL CENTER =     427645.477000000    
   MINIMUM Y CELL CENTER =     6654704.56000000    
   MAXIMUM Y CELL CENTER =     6655284.39000000    
   MAXIMUM NUMBER OF CELL2D VERTICES IS 8 FOR CELL 1815
 END PROCESSING VERTICES

 NPF -- NODE PROPERTY FLOW PACKAGE, VERSION 1, 3/30/2015 INPUT READ FROM UNIT 1007


 # File generated by Flopy version 3.3.5 on 11/06/2021 at 11:40:47.
 PROCESSING NPF OPTIONS
    CELL-BY-CELL FLOW INFORMATION WILL BE SAVED TO BINARY FILE WHENEVER ICBCFL IS NOT ZERO.
 END OF NPF OPTIONS

 GHB   -- GHB PACKAGE, VERSION 8, 2/22/2014 INPUT READ FROM UNIT 1010
 # File generated by Flopy version 3.3.5 on 11/06/2021 at 11:40:47.

 PROCESSING GHB OPTIONS
    GHB BOUNDARIES HAVE NAMES IN LAST COLUMN.
    LISTS OF GHB CELLS WILL BE PRINTED.
    GHB FLOWS WILL BE PRINTED TO LISTING FILE.
    FLOWS WILL BE SAVED TO BUDGET FILE SPECIFIED IN OUTPUT CONTROL
 END OF GHB OPTIONS

 PROCESSING GHB DIMENSIONS
    MAXBOUND =     180
 END OF GHB DIMENSIONS

 RCH   -- RCH PACKAGE, VERSION 8, 2/22/2014 INPUT READ FROM UNIT 1011
 # File generated by Flopy version 3.3.5 on 11/06/2021 at 11:40:47.

 PROCESSING RCH OPTIONS
    RECHARGE WILL BE APPLIED TO SPECIFIED CELL.
    LISTS OF RCH CELLS WILL BE PRINTED.
    RCH FLOWS WILL BE PRINTED TO LISTING FILE.
    FLOWS WILL BE SAVED TO BUDGET FILE SPECIFIED IN OUTPUT CONTROL
 END OF RCH OPTIONS

 PROCESSING RCH DIMENSIONS
    MAXBOUND =    2955
 END OF RCH DIMENSIONS

 SFR   -- SFR PACKAGE, VERSION 8, 2/22/2014 INPUT READ FROM UNIT 1012
 # File generated by Flopy version 3.3.5 on 11/06/2021 at 11:40:47.

 PROCESSING SFR OPTIONS
    LISTS OF SFR CELLS WILL BE PRINTED.
    SFR STAGES WILL BE PRINTED TO LISTING FILE.
    SFR FLOWS WILL BE PRINTED TO LISTING FILE.
    FLOWS WILL BE SAVED TO BUDGET FILE SPECIFIED IN OUTPUT CONTROL

 OPENED experimental.sfr.bud
 FILE TYPE:DATA(BINARY)   UNIT 1015   STATUS:REPLACE             
 FORMAT:UNFORMATTED            ACCESS:STREAM              
 ACTION:READWRITE           

    SFR  BUDGET  WILL BE SAVED TO FILE: experimental.sfr.bud                                                                                                                                                                                                                                                                                                                                                                                                                                                                                                                                                                                                                                                                                                                                                                                                                                                                                                                                                                                                                                                                                                                                                                                                                                                                                                                                                                                                                                                                                                                                                                                                                                                                                                                                                                                                                                                                                                                                                                                                                                                                                                                                                                                                                                                                                                                                                                                                                                                                                                                                                                                                                                                                                                                                                                                                                                                                                                                                                                                                                                                                                                                                                                                                                                                                                                                                                                                                                                                                                                                                                                                                                                                                                                                                                                                                                                                                                                                                                                                                                                                                                                                                                                                                                                                                                                                                                                                                                                                                                                                                                                                                                                                                                                                                                                                                                                                                                                                                                                                                                                                                                                                                                                                    
    OPENED ON UNIT:    1015

 OPENED experimental_leakage.sfr.obs
 FILE TYPE:OBS   UNIT 1016   STATUS:OLD                 
 FORMAT:FORMATTED              ACCESS:SEQUENTIAL          
 ACTION:READ                

    MAXIMUM SFR ITERATION VALUE (100) SPECIFIED.
    UNIT CONVERSION VALUE (86400.00000000000) SPECIFIED.
 END OF SFR OPTIONS

 PROCESSING SFR DIMENSIONS
    NREACHES = 266
 END OF SFR DIMENSIONS

 PROCESSING SFR PACKAGEDATA
 END OF SFR PACKAGEDATA

 PROCESSING SFR CONNECTIONDATA
 END OF SFR CONNECTIONDATA

 IC -- INITIAL CONDITIONS PACKAGE, VERSION 8, 3/28/2015 INPUT READ FROM UNIT 1006
 # File generated by Flopy version 3.3.5 on 11/06/2021 at 11:40:47.
 PROCESSING GRIDDATA

     INITIAL HEAD =   138.0000    
 END PROCESSING GRIDDATA
 PROCESSING GRIDDATA

                ICELLTYPE = 1 FOR LAYER 1

                ICELLTYPE = 0 FOR LAYER 2

                ICELLTYPE = 0 FOR LAYER 3

                        K =   86.40000     FOR LAYER 1

                        K =   86.40000     FOR LAYER 2

                        K =   43.20000     FOR LAYER 3

                      K33 =   8.640000     FOR LAYER 1

                      K33 =   8.640000     FOR LAYER 2

                      K33 =  0.1000000     FOR LAYER 3
 K22 not provided.  Assuming K22 = K.
 END PROCESSING GRIDDATA

 STO -- STORAGE PACKAGE, VERSION 1, 5/19/2014 INPUT READ FROM UNIT 1009


 # File generated by Flopy version 3.3.5 on 11/06/2021 at 11:40:47.
 PROCESSING STORAGE OPTIONS
    CELL-BY-CELL FLOW INFORMATION WILL BE SAVED TO BINARY FILE WHENEVER ICBCFL IS NOT ZERO.
 END OF STORAGE OPTIONS
 PROCESSING GRIDDATA

                 ICONVERT = 1

         SPECIFIC STORAGE FOR LAYER 1
       1.000E-06  1.000E-06  1.000E-06  1.000E-06  1.000E-06  1.000E-06  1.000E-06  1.000E-06  1.000E-06  1.000E-06  1.000E-06
       1.000E-06  1.000E-06  1.000E-06  1.000E-06  1.000E-06  1.000E-06  1.000E-06  1.000E-06  1.000E-06  1.000E-06  1.000E-06
       1.000E-06  1.000E-06  1.000E-06  1.000E-06  1.000E-06  1.000E-06  1.000E-06  1.000E-06  1.000E-06  1.000E-06  1.000E-06
       1.000E-06  1.000E-06  1.000E-06  1.000E-06  1.000E-06  1.000E-06  1.000E-06  1.000E-06  1.000E-06  1.000E-06  1.000E-06
       1.000E-06  1.000E-06  1.000E-06  1.000E-06  1.000E-06  1.000E-06  1.000E-06  1.000E-06  1.000E-06  1.000E-06  1.000E-06
       1.000E-06  1.000E-06  1.000E-06  1.000E-06  1.000E-06  1.000E-06  1.000E-06  1.000E-06  1.000E-06  1.000E-06  1.000E-06
       1.000E-06  1.000E-06  1.000E-06  1.000E-06  1.000E-06  1.000E-06  1.000E-06  1.000E-06  1.000E-06  1.000E-06  1.000E-06
       1.000E-06  1.000E-06  1.000E-06  1.000E-06  1.000E-06  1.000E-06  1.000E-06  1.000E-06  1.000E-06  1.000E-06  1.000E-06
       1.000E-06  1.000E-06  1.000E-06  1.000E-06  1.000E-06  1.000E-06  1.000E-06  1.000E-06  1.000E-06  1.000E-06  1.000E-06
       1.000E-06  1.000E-06  1.000E-06  1.000E-06  1.000E-06  1.000E-06  1.000E-06  1.000E-06  1.000E-06  1.000E-06  1.000E-06
       1.000E-06  1.000E-06  1.000E-06  1.000E-06  1.000E-06  1.000E-06  1.000E-06  1.000E-06  1.000E-06  1.000E-06  1.000E-06
       1.000E-06  1.000E-06  1.000E-06  1.000E-06  1.000E-06  1.000E-06  1.000E-06  1.000E-06  1.000E-06  1.000E-06  1.000E-06
       1.000E-06  1.000E-06  1.000E-06  1.000E-06  1.000E-06  1.000E-06  1.000E-06  1.000E-06  1.000E-06  1.000E-06  1.000E-06
       1.000E-06  1.000E-06  1.000E-06  1.000E-06  1.000E-06  1.000E-06  1.000E-06  1.000E-06  1.000E-06  1.000E-06  1.000E-06
       1.000E-06  1.000E-06  1.000E-06  1.000E-06  1.000E-06  1.000E-06  1.000E-06  1.000E-06  1.000E-06  1.000E-06  1.000E-06
       1.000E-06  1.000E-06  1.000E-06  1.000E-06  1.000E-06  1.000E-06  1.000E-06  1.000E-06  1.000E-06  1.000E-06  1.000E-06
       1.000E-06  1.000E-06  1.000E-06  1.000E-06  1.000E-06  1.000E-06  1.000E-06  1.000E-06  1.000E-06  1.000E-06  1.000E-06
       1.000E-06  1.000E-06  1.000E-06  1.000E-06  1.000E-06  1.000E-06  1.000E-06  1.000E-06  1.000E-06  1.000E-06  1.000E-06
       1.000E-06  1.000E-06  1.000E-06  1.000E-06  1.000E-06  1.000E-06  1.000E-06  1.000E-06  1.000E-06  1.000E-06  1.000E-06
       1.000E-06  1.000E-06  1.000E-06  1.000E-06  1.000E-06  1.000E-06  1.000E-06  1.000E-06  1.000E-06  1.000E-06  1.000E-06
       1.000E-06  1.000E-06  1.000E-06  1.000E-06  1.000E-06  1.000E-06  1.000E-06  1.000E-06  1.000E-06  1.000E-06  1.000E-06
       1.000E-06  1.000E-06  1.000E-06  1.000E-06  1.000E-06  1.000E-06  1.000E-06  1.000E-06  1.000E-06  1.000E-06  1.000E-06
       1.000E-06  1.000E-06  1.000E-06  1.000E-06  1.000E-06  1.000E-06  1.000E-06  1.000E-06  1.000E-06  1.000E-06  1.000E-06
       1.000E-06  1.000E-06  1.000E-06  1.000E-06  1.000E-06  1.000E-06  1.000E-06  1.000E-06  1.000E-06  1.000E-06  1.000E-06
       1.000E-06  1.000E-06  1.000E-06  1.000E-06  1.000E-06  1.000E-06  1.000E-06  1.000E-06  1.000E-06  1.000E-06  1.000E-06
       1.000E-06  1.000E-06  1.000E-06  1.000E-06  1.000E-06  1.000E-06  1.000E-06  1.000E-06  1.000E-06  1.000E-06  1.000E-06
       1.000E-06  1.000E-06  1.000E-06  1.000E-06  1.000E-06  1.000E-06  1.000E-06  1.000E-06  1.000E-06  1.000E-06  1.000E-06
       1.000E-06  1.000E-06  1.000E-06  1.000E-06  1.000E-06  1.000E-06  1.000E-06  1.000E-06  1.000E-06  1.000E-06  1.000E-06
       1.000E-06  1.000E-06  1.000E-06  1.000E-06  1.000E-06  1.000E-06  1.000E-06  1.000E-06  1.000E-06  1.000E-06  1.000E-06
       1.000E-06  1.000E-06  1.000E-06  1.000E-06  1.000E-06  1.000E-06  1.000E-06  1.000E-06  1.000E-06  1.000E-06  1.000E-06
       1.000E-06  1.000E-06  1.000E-06  1.000E-06  1.000E-06  1.000E-06  1.000E-06  1.000E-06  1.000E-06  1.000E-06  1.000E-06
       1.000E-06  1.000E-06  1.000E-06  1.000E-06  1.000E-06  1.000E-06  1.000E-06  1.000E-06  1.000E-06  1.000E-06  1.000E-06
       1.000E-06  1.000E-06  1.000E-06  1.000E-06  1.000E-06  1.000E-06  1.000E-06  1.000E-06  1.000E-06  1.000E-06  1.000E-06
       1.000E-06  1.000E-06  1.000E-06  1.000E-06  1.000E-06  1.000E-06  1.000E-06  1.000E-06  1.000E-06  1.000E-06  1.000E-06
       1.000E-06  1.000E-06  1.000E-06  1.000E-06  1.000E-06  1.000E-06  1.000E-06  1.000E-06  1.000E-06  1.000E-06  1.000E-06
       1.000E-06  1.000E-06  1.000E-06  1.000E-06  1.000E-06  1.000E-06  1.000E-06  1.000E-06  1.000E-06  1.000E-06  1.000E-06
       1.000E-06  1.000E-06  1.000E-06  1.000E-06  1.000E-06  1.000E-06  1.000E-06  1.000E-06  1.000E-06  1.000E-06  1.000E-06
       1.000E-06  1.000E-06  1.000E-06  1.000E-06  1.000E-06  1.000E-06  1.000E-06  1.000E-06  1.000E-06  1.000E-06  1.000E-06
       1.000E-06  1.000E-06  1.000E-06  1.000E-06  1.000E-06  1.000E-06  1.000E-06  1.000E-06  1.000E-06  1.000E-06  1.000E-06
       1.000E-06  1.000E-06  1.000E-06  1.000E-06  1.000E-06  1.000E-06  1.000E-06  1.000E-06  1.000E-06  1.000E-06  1.000E-06
       1.000E-06  1.000E-06  1.000E-06  1.000E-06  1.000E-06  1.000E-06  1.000E-06  1.000E-06  1.000E-06  1.000E-06  1.000E-06
       1.000E-06  1.000E-06  1.000E-06  1.000E-06  1.000E-06  1.000E-06  1.000E-06  1.000E-06  1.000E-06  1.000E-06  1.000E-06
       1.000E-06  1.000E-06  1.000E-06  1.000E-06  1.000E-06  1.000E-06  1.000E-06  1.000E-06  1.000E-06  1.000E-06  1.000E-06
       1.000E-06  1.000E-06  1.000E-06  1.000E-06  1.000E-06  1.000E-06  1.000E-06  1.000E-06  1.000E-06  1.000E-06  1.000E-06
       1.000E-06  1.000E-06  1.000E-06  1.000E-06  1.000E-06  1.000E-06  1.000E-06  1.000E-06  1.000E-06  1.000E-06  1.000E-06
       1.000E-06  1.000E-06  1.000E-06  1.000E-06  1.000E-06  1.000E-06  1.000E-06  1.000E-06  1.000E-06  1.000E-06  1.000E-06
       1.000E-06  1.000E-06  1.000E-06  1.000E-06  1.000E-06  1.000E-06  1.000E-06  1.000E-06  1.000E-06  1.000E-06  1.000E-06
       1.000E-06  1.000E-06  1.000E-06  1.000E-06  1.000E-06  1.000E-06  1.000E-06  1.000E-06  1.000E-06  1.000E-06  1.000E-06
       1.000E-06  1.000E-06  1.000E-06  1.000E-06  1.000E-06  1.000E-06  1.000E-06  1.000E-06  1.000E-06  1.000E-06  1.000E-06
       1.000E-06  1.000E-06  1.000E-06  1.000E-06  1.000E-06  1.000E-06  1.000E-06  1.000E-06  1.000E-06  1.000E-06  1.000E-06
       1.000E-06  1.000E-06  1.000E-06  1.000E-06  1.000E-06  1.000E-06  1.000E-06  1.000E-06  1.000E-06  1.000E-06  1.000E-06
       1.000E-06  1.000E-06  1.000E-06  1.000E-06  1.000E-06  1.000E-06  1.000E-06  1.000E-06  1.000E-06  1.000E-06  1.000E-06
       1.000E-06  1.000E-06  1.000E-06  1.000E-06  1.000E-06  1.000E-06  1.000E-06  1.000E-06  1.000E-06  1.000E-06  1.000E-06
       1.000E-06  1.000E-06  1.000E-06  1.000E-06  1.000E-06  1.000E-06  1.000E-06  1.000E-06  1.000E-06  1.000E-06  1.000E-06
       1.000E-06  1.000E-06  1.000E-06  1.000E-06  1.000E-06  1.000E-06  1.000E-06  1.000E-06  1.000E-06  1.000E-06  1.000E-06
       1.000E-06  1.000E-06  1.000E-06  1.000E-06  1.000E-06  1.000E-06  1.000E-06  1.000E-06  1.000E-06  1.000E-06  1.000E-06
       1.000E-06  1.000E-06  1.000E-06  1.000E-06  1.000E-06  1.000E-06  1.000E-06  1.000E-06  1.000E-06  1.000E-06  1.000E-06
       1.000E-06  1.000E-06  1.000E-06  1.000E-06  1.000E-06  1.000E-06  1.000E-06  1.000E-06  1.000E-06  1.000E-06  1.000E-06
       1.000E-06  1.000E-06  1.000E-06  1.000E-06  1.000E-06  1.000E-06  1.000E-06  1.000E-06  1.000E-06  1.000E-06  1.000E-06
       1.000E-06  1.000E-06  1.000E-06  1.000E-06  1.000E-06  1.000E-06  1.000E-06  1.000E-06  1.000E-06  1.000E-06  1.000E-06
       1.000E-06  1.000E-06  1.000E-06  1.000E-06  1.000E-06  1.000E-06  1.000E-06  1.000E-06  1.000E-06  1.000E-06  1.000E-06
       1.000E-06  1.000E-06  1.000E-06  1.000E-06  1.000E-06  1.000E-06  1.000E-06  1.000E-06  1.000E-06  1.000E-06  1.000E-06
       1.000E-06  1.000E-06  1.000E-06  1.000E-06  1.000E-06  1.000E-06  1.000E-06  1.000E-06  1.000E-06  1.000E-06  1.000E-06
       1.000E-06  1.000E-06  1.000E-06  1.000E-06  1.000E-06  1.000E-06  1.000E-06  1.000E-06  1.000E-06  1.000E-06  1.000E-06
       1.000E-06  1.000E-06  1.000E-06  1.000E-06  1.000E-06  1.000E-06  1.000E-06  1.000E-06  1.000E-06  1.000E-06  1.000E-06
       1.000E-06  1.000E-06  1.000E-06  1.000E-06  1.000E-06  1.000E-06  1.000E-06  1.000E-06  1.000E-06  1.000E-06  1.000E-06
       1.000E-06  1.000E-06  1.000E-06  1.000E-06  1.000E-06  1.000E-06  1.000E-06  1.000E-06  1.000E-06  1.000E-06  1.000E-06
       1.000E-06  1.000E-06  1.000E-06  1.000E-06  1.000E-06  1.000E-06  1.000E-06  1.000E-06  1.000E-06  1.000E-06  1.000E-06
       1.000E-06  1.000E-06  1.000E-06  1.000E-06  1.000E-06  1.000E-06  1.000E-06  1.000E-06  1.000E-06  1.000E-06  1.000E-06
       1.000E-06  1.000E-06  1.000E-06  1.000E-06  1.000E-06  1.000E-06  1.000E-06  1.000E-06  1.000E-06  1.000E-06  1.000E-06
       1.000E-06  1.000E-06  1.000E-06  1.000E-06  1.000E-06  1.000E-06  1.000E-06  1.000E-06  1.000E-06  1.000E-06  1.000E-06
       1.000E-06  1.000E-06  1.000E-06  1.000E-06  1.000E-06  1.000E-06  1.000E-06  1.000E-06  1.000E-06  1.000E-06  1.000E-06
       1.000E-06  1.000E-06  1.000E-06  1.000E-06  1.000E-06  1.000E-06  1.000E-06  1.000E-06  1.000E-06  1.000E-06  1.000E-06
       1.000E-06  1.000E-06  1.000E-06  1.000E-06  1.000E-06  1.000E-06  1.000E-06  1.000E-06  1.000E-06  1.000E-06  1.000E-06
       1.000E-06  1.000E-06  1.000E-06  1.000E-06  1.000E-06  1.000E-06  1.000E-06  1.000E-06  1.000E-06  1.000E-06  1.000E-06
       1.000E-06  1.000E-06  1.000E-06  1.000E-06  1.000E-06  1.000E-06  1.000E-06  1.000E-06  1.000E-06  1.000E-06  1.000E-06
       1.000E-06  1.000E-06  1.000E-06  1.000E-06  1.000E-06  1.000E-06  1.000E-06  1.000E-06  1.000E-06  1.000E-06  1.000E-06
       1.000E-06  1.000E-06  1.000E-06  1.000E-06  1.000E-06  1.000E-06  1.000E-06  1.000E-06  1.000E-06  1.000E-06  1.000E-06
       1.000E-06  1.000E-06  1.000E-06  1.000E-06  1.000E-06  1.000E-06  1.000E-06  1.000E-06  1.000E-06  1.000E-06  1.000E-06
       1.000E-06  1.000E-06  1.000E-06  1.000E-06  1.000E-06  1.000E-06  1.000E-06  1.000E-06  1.000E-06  1.000E-06  1.000E-06
       1.000E-06  1.000E-06  1.000E-06  1.000E-06  1.000E-06  1.000E-06  1.000E-06  1.000E-06  1.000E-06  1.000E-06  1.000E-06
       1.000E-06  1.000E-06  1.000E-06  1.000E-06  1.000E-06  1.000E-06  1.000E-06  1.000E-06  1.000E-06  1.000E-06  1.000E-06
       1.000E-06  1.000E-06  1.000E-06  1.000E-06  1.000E-06  1.000E-06  1.000E-06  1.000E-06  1.000E-06  1.000E-06  1.000E-06
       1.000E-06  1.000E-06  1.000E-06  1.000E-06  1.000E-06  1.000E-06  1.000E-06  1.000E-06  1.000E-06  1.000E-06  1.000E-06
       1.000E-06  1.000E-06  1.000E-06  1.000E-06  1.000E-06  1.000E-06  1.000E-06  1.000E-06  1.000E-06  1.000E-06  1.000E-06
       1.000E-06  1.000E-06  1.000E-06  1.000E-06  1.000E-06  1.000E-06  1.000E-06  1.000E-06  1.000E-06  1.000E-06  1.000E-06
       1.000E-06  1.000E-06  1.000E-06  1.000E-06  1.000E-06  1.000E-06  1.000E-06  1.000E-06  1.000E-06  1.000E-06  1.000E-06
       1.000E-06  1.000E-06  1.000E-06  1.000E-06  1.000E-06  1.000E-06  1.000E-06  1.000E-06  1.000E-06  1.000E-06  1.000E-06
       1.000E-06  1.000E-06  1.000E-06  1.000E-06  1.000E-06  1.000E-06  1.000E-06  1.000E-06  1.000E-06  1.000E-06  1.000E-06
       1.000E-06  1.000E-06  1.000E-06  1.000E-06  1.000E-06  1.000E-06  1.000E-06  1.000E-06  1.000E-06  1.000E-06  1.000E-06
       1.000E-06  1.000E-06  1.000E-06  1.000E-06  1.000E-06  1.000E-06  1.000E-06  1.000E-06  1.000E-06  1.000E-06  1.000E-06
       1.000E-06  1.000E-06  1.000E-06  1.000E-06  1.000E-06  1.000E-06  1.000E-06  1.000E-06  1.000E-06  1.000E-06  1.000E-06
       1.000E-06  1.000E-06  1.000E-06  1.000E-06  1.000E-06  1.000E-06  1.000E-06  1.000E-06  1.000E-06  1.000E-06  1.000E-06
       1.000E-06  1.000E-06  1.000E-06  1.000E-06  1.000E-06  1.000E-06  1.000E-06  1.000E-06  1.000E-06  1.000E-06  1.000E-06
       1.000E-06  1.000E-06  1.000E-06  1.000E-06  1.000E-06  1.000E-06  1.000E-06  1.000E-06  1.000E-06  1.000E-06  1.000E-06
       1.000E-06  1.000E-06  1.000E-06  1.000E-06  1.000E-06  1.000E-06  1.000E-06  1.000E-06  1.000E-06  1.000E-06  1.000E-06
       1.000E-06  1.000E-06  1.000E-06  1.000E-06  1.000E-06  1.000E-06  1.000E-06  1.000E-06  1.000E-06  1.000E-06  1.000E-06
       1.000E-06  1.000E-06  1.000E-06  1.000E-06  1.000E-06  1.000E-06  1.000E-06  1.000E-06  1.000E-06  1.000E-06  1.000E-06
       1.000E-06  1.000E-06  1.000E-06  1.000E-06  1.000E-06  1.000E-06  1.000E-06  1.000E-06  1.000E-06  1.000E-06  1.000E-06
       1.000E-06  1.000E-06  1.000E-06  1.000E-06  1.000E-06  1.000E-06  1.000E-06  1.000E-06  1.000E-06  1.000E-06  1.000E-06
       1.000E-06  1.000E-06  1.000E-06  1.000E-06  1.000E-06  1.000E-06  1.000E-06  1.000E-06  1.000E-06  1.000E-06  1.000E-06
       1.000E-06  1.000E-06  1.000E-06  1.000E-06  1.000E-06  1.000E-06  1.000E-06  1.000E-06  1.000E-06  1.000E-06  1.000E-06
       1.000E-06  1.000E-06  1.000E-06  1.000E-06  1.000E-06  1.000E-06  1.000E-06  1.000E-06  1.000E-06  1.000E-06  1.000E-06
       1.000E-06  1.000E-06  1.000E-06  1.000E-06  1.000E-06  1.000E-06  1.000E-06  1.000E-06  1.000E-06  1.000E-06  1.000E-06
       1.000E-06  1.000E-06  1.000E-06  1.000E-06  1.000E-06  1.000E-06  1.000E-06  1.000E-06  1.000E-06  1.000E-06  1.000E-06
       1.000E-06  1.000E-06  1.000E-06  1.000E-06  1.000E-06  1.000E-06  1.000E-06  1.000E-06  1.000E-06  1.000E-06  1.000E-06
       1.000E-06  1.000E-06  1.000E-06  1.000E-06  1.000E-06  1.000E-06  1.000E-06  1.000E-06  1.000E-06  1.000E-06  1.000E-06
       1.000E-06  1.000E-06  1.000E-06  1.000E-06  1.000E-06  1.000E-06  1.000E-06  1.000E-06  1.000E-06  1.000E-06  1.000E-06
       1.000E-06  1.000E-06  1.000E-06  1.000E-06  1.000E-06  1.000E-06  1.000E-06  1.000E-06  1.000E-06  1.000E-06  1.000E-06
       1.000E-06  1.000E-06  1.000E-06  1.000E-06  1.000E-06  1.000E-06  1.000E-06  1.000E-06  1.000E-06  1.000E-06  1.000E-06
       1.000E-06  1.000E-06  1.000E-06  1.000E-06  1.000E-06  1.000E-06  1.000E-06  1.000E-06  1.000E-06  1.000E-06  1.000E-06
       1.000E-06  1.000E-06  1.000E-06  1.000E-06  1.000E-06  1.000E-06  1.000E-06  1.000E-06  1.000E-06  1.000E-06  1.000E-06
       1.000E-06  1.000E-06  1.000E-06  1.000E-06  1.000E-06  1.000E-06  1.000E-06  1.000E-06  1.000E-06  1.000E-06  1.000E-06
       1.000E-06  1.000E-06  1.000E-06  1.000E-06  1.000E-06  1.000E-06  1.000E-06  1.000E-06  1.000E-06  1.000E-06  1.000E-06
       1.000E-06  1.000E-06  1.000E-06  1.000E-06  1.000E-06  1.000E-06  1.000E-06  1.000E-06  1.000E-06  1.000E-06  1.000E-06
       1.000E-06  1.000E-06  1.000E-06  1.000E-06  1.000E-06  1.000E-06  1.000E-06  1.000E-06  1.000E-06  1.000E-06  1.000E-06
       1.000E-06  1.000E-06  1.000E-06  1.000E-06  1.000E-06  1.000E-06  1.000E-06  1.000E-06  1.000E-06  1.000E-06  1.000E-06
       1.000E-06  1.000E-06  1.000E-06  1.000E-06  1.000E-06  1.000E-06  1.000E-06  1.000E-06  1.000E-06  1.000E-06  1.000E-06
       1.000E-06  1.000E-06  1.000E-06  1.000E-06  1.000E-06  1.000E-06  1.000E-06  1.000E-06  1.000E-06  1.000E-06  1.000E-06
       1.000E-06  1.000E-06  1.000E-06  1.000E-06  1.000E-06  1.000E-06  1.000E-06  1.000E-06  1.000E-06  1.000E-06  1.000E-06
       1.000E-06  1.000E-06  1.000E-06  1.000E-06  1.000E-06  1.000E-06  1.000E-06  1.000E-06  1.000E-06  1.000E-06  1.000E-06
       1.000E-06  1.000E-06  1.000E-06  1.000E-06  1.000E-06  1.000E-06  1.000E-06  1.000E-06  1.000E-06  1.000E-06  1.000E-06
       1.000E-06  1.000E-06  1.000E-06  1.000E-06  1.000E-06  1.000E-06  1.000E-06  1.000E-06  1.000E-06  1.000E-06  1.000E-06
       1.000E-06  1.000E-06  1.000E-06  1.000E-06  1.000E-06  1.000E-06  1.000E-06  1.000E-06  1.000E-06  1.000E-06  1.000E-06
       1.000E-06  1.000E-06  1.000E-06  1.000E-06  1.000E-06  1.000E-06  1.000E-06  1.000E-06  1.000E-06  1.000E-06  1.000E-06
       1.000E-06  1.000E-06  1.000E-06  1.000E-06  1.000E-06  1.000E-06  1.000E-06  1.000E-06  1.000E-06  1.000E-06  1.000E-06
       1.000E-06  1.000E-06  1.000E-06  1.000E-06  1.000E-06  1.000E-06  1.000E-06  1.000E-06  1.000E-06  1.000E-06  1.000E-06
       1.000E-06  1.000E-06  1.000E-06  1.000E-06  1.000E-06  1.000E-06  1.000E-06  1.000E-06  1.000E-06  1.000E-06  1.000E-06
       1.000E-06  1.000E-06  1.000E-06  1.000E-06  1.000E-06  1.000E-06  1.000E-06  1.000E-06  1.000E-06  1.000E-06  1.000E-06
       1.000E-06  1.000E-06  1.000E-06  1.000E-06  1.000E-06  1.000E-06  1.000E-06  1.000E-06  1.000E-06  1.000E-06  1.000E-06
       1.000E-06  1.000E-06  1.000E-06  1.000E-06  1.000E-06  1.000E-06  1.000E-06  1.000E-06  1.000E-06  1.000E-06  1.000E-06
       1.000E-06  1.000E-06  1.000E-06  1.000E-06  1.000E-06  1.000E-06  1.000E-06  1.000E-06  1.000E-06  1.000E-06  1.000E-06
       1.000E-06  1.000E-06  1.000E-06  1.000E-06  1.000E-06  1.000E-06  1.000E-06  1.000E-06  1.000E-06  1.000E-06  1.000E-06
       1.000E-06  1.000E-06  1.000E-06  1.000E-06  1.000E-06  1.000E-06  1.000E-06  1.000E-06  1.000E-06  1.000E-06  1.000E-06
       1.000E-06  1.000E-06  1.000E-06  1.000E-06  1.000E-06  1.000E-06  1.000E-06  1.000E-06  1.000E-06  1.000E-06  1.000E-06
       1.000E-06  1.000E-06  1.000E-06  1.000E-06  1.000E-06  1.000E-06  1.000E-06  1.000E-06  1.000E-06  1.000E-06  1.000E-06
       1.000E-06  1.000E-06  1.000E-06  1.000E-06  1.000E-06  1.000E-06  1.000E-06  1.000E-06  1.000E-06  1.000E-06  1.000E-06
       1.000E-06  1.000E-06  1.000E-06  1.000E-06  1.000E-06  1.000E-06  1.000E-06  1.000E-06  1.000E-06  1.000E-06  1.000E-06
       1.000E-06  1.000E-06  1.000E-06  1.000E-06  1.000E-06  1.000E-06  1.000E-06  1.000E-06  1.000E-06  1.000E-06  1.000E-06
       1.000E-06  1.000E-06  1.000E-06  1.000E-06  1.000E-06  1.000E-06  1.000E-06  1.000E-06  1.000E-06  1.000E-06  1.000E-06
       1.000E-06  1.000E-06  1.000E-06  1.000E-06  1.000E-06  1.000E-06  1.000E-06  1.000E-06  1.000E-06  1.000E-06  1.000E-06
       1.000E-06  1.000E-06  1.000E-06  1.000E-06  1.000E-06  1.000E-06  1.000E-06  1.000E-06  1.000E-06  1.000E-06  1.000E-06
       1.000E-06  1.000E-06  1.000E-06  1.000E-06  1.000E-06  1.000E-06  1.000E-06  1.000E-06  1.000E-06  1.000E-06  1.000E-06
       1.000E-06  1.000E-06  1.000E-06  1.000E-06  1.000E-06  1.000E-06  1.000E-06  1.000E-06  1.000E-06  1.000E-06  1.000E-06
       1.000E-06  1.000E-06  1.000E-06  1.000E-06  1.000E-06  1.000E-06  1.000E-06  1.000E-06  1.000E-06  1.000E-06  1.000E-06
       1.000E-06  1.000E-06  1.000E-06  1.000E-06  1.000E-06  1.000E-06  1.000E-06  1.000E-06  1.000E-06  1.000E-06  1.000E-06
       1.000E-06  1.000E-06  1.000E-06  1.000E-06  1.000E-06  1.000E-06  1.000E-06  1.000E-06  1.000E-06  1.000E-06  1.000E-06
       1.000E-06  1.000E-06  1.000E-06  1.000E-06  1.000E-06  1.000E-06  1.000E-06  1.000E-06  1.000E-06  1.000E-06  1.000E-06
       1.000E-06  1.000E-06  1.000E-06  1.000E-06  1.000E-06  1.000E-06  1.000E-06  1.000E-06  1.000E-06  1.000E-06  1.000E-06
       1.000E-06  1.000E-06  1.000E-06  1.000E-06  1.000E-06  1.000E-06  1.000E-06  1.000E-06  1.000E-06  1.000E-06  1.000E-06
       1.000E-06  1.000E-06  1.000E-06  1.000E-06  1.000E-06  1.000E-06  1.000E-06  1.000E-06  1.000E-06  1.000E-06  1.000E-06
       1.000E-06  1.000E-06  1.000E-06  1.000E-06  1.000E-06  1.000E-06  1.000E-06  1.000E-06  1.000E-06  1.000E-06  1.000E-06
       1.000E-06  1.000E-06  1.000E-06  1.000E-06  1.000E-06  1.000E-06  1.000E-06  1.000E-06  1.000E-06  1.000E-06  1.000E-06
       1.000E-06  1.000E-06  1.000E-06  1.000E-06  1.000E-06  1.000E-06  1.000E-06  1.000E-06  1.000E-06  1.000E-06  1.000E-06
       1.000E-06  1.000E-06  1.000E-06  1.000E-06  1.000E-06  1.000E-06  1.000E-06  1.000E-06  1.000E-06  1.000E-06  1.000E-06
       1.000E-06  1.000E-06  1.000E-06  1.000E-06  1.000E-06  1.000E-06  1.000E-06  1.000E-06  1.000E-06  1.000E-06  1.000E-06
       1.000E-06  1.000E-06  1.000E-06  1.000E-06  1.000E-06  1.000E-06  1.000E-06  1.000E-06  1.000E-06  1.000E-06  1.000E-06
       1.000E-06  1.000E-06  1.000E-06  1.000E-06  1.000E-06  1.000E-06  1.000E-06  1.000E-06  1.000E-06  1.000E-06  1.000E-06
       1.000E-06  1.000E-06  1.000E-06  1.000E-06  1.000E-06  1.000E-06  1.000E-06  1.000E-06  1.000E-06  1.000E-06  1.000E-06
       1.000E-06  1.000E-06  1.000E-06  1.000E-06  1.000E-06  1.000E-06  1.000E-06  1.000E-06  1.000E-06  1.000E-06  1.000E-06
       1.000E-06  1.000E-06  1.000E-06  1.000E-06  1.000E-06  1.000E-06  1.000E-06  1.000E-06  1.000E-06  1.000E-06  1.000E-06
       1.000E-06  1.000E-06  1.000E-06  1.000E-06  1.000E-06  1.000E-06  1.000E-06  1.000E-06  1.000E-06  1.000E-06  1.000E-06
       1.000E-06  1.000E-06  1.000E-06  1.000E-06  1.000E-06  1.000E-06  1.000E-06  1.000E-06  1.000E-06  1.000E-06  1.000E-06
       1.000E-06  1.000E-06  1.000E-06  1.000E-06  1.000E-06  1.000E-06  1.000E-06  1.000E-06  1.000E-06  1.000E-06  1.000E-06
       1.000E-06  1.000E-06  1.000E-06  1.000E-06  1.000E-06  1.000E-06  1.000E-06  1.000E-06  1.000E-06  1.000E-06  1.000E-06
       1.000E-06  1.000E-06  1.000E-06  1.000E-06  1.000E-06  1.000E-06  1.000E-06  1.000E-06  1.000E-06  1.000E-06  1.000E-06
       1.000E-06  1.000E-06  1.000E-06  1.000E-06  1.000E-06  1.000E-06  1.000E-06  1.000E-06  1.000E-06  1.000E-06  1.000E-06
       1.000E-06  1.000E-06  1.000E-06  1.000E-06  1.000E-06  1.000E-06  1.000E-06  1.000E-06  1.000E-06  1.000E-06  1.000E-06
       1.000E-06  1.000E-06  1.000E-06  1.000E-06  1.000E-06  1.000E-06  1.000E-06  1.000E-06  1.000E-06  1.000E-06  1.000E-06
       1.000E-06  1.000E-06  1.000E-06  1.000E-06  1.000E-06  1.000E-06  1.000E-06  1.000E-06  1.000E-06  1.000E-06  1.000E-06
       1.000E-06  1.000E-06  1.000E-06  1.000E-06  1.000E-06  1.000E-06  1.000E-06  1.000E-06  1.000E-06  1.000E-06  1.000E-06
       1.000E-06  1.000E-06  1.000E-06  1.000E-06  1.000E-06  1.000E-06  1.000E-06  1.000E-06  1.000E-06  1.000E-06  1.000E-06
       1.000E-06  1.000E-06  1.000E-06  1.000E-06  1.000E-06  1.000E-06  1.000E-06  1.000E-06  1.000E-06  1.000E-06  1.000E-06
       1.000E-06  1.000E-06  1.000E-06  1.000E-06  1.000E-06  1.000E-06  1.000E-06  1.000E-06  1.000E-06  1.000E-06  1.000E-06
       1.000E-06  1.000E-06  1.000E-06  1.000E-06  1.000E-06  1.000E-06  1.000E-06  1.000E-06  1.000E-06  1.000E-06  1.000E-06
       1.000E-06  1.000E-06  1.000E-06  1.000E-06  1.000E-06  1.000E-06  1.000E-06  1.000E-06  1.000E-06  1.000E-06  1.000E-06
       1.000E-06  1.000E-06  1.000E-06  1.000E-06  1.000E-06  1.000E-06  1.000E-06  1.000E-06  1.000E-06  1.000E-06  1.000E-06
       1.000E-06  1.000E-06  1.000E-06  1.000E-06  1.000E-06  1.000E-06  1.000E-06  1.000E-06  1.000E-06  1.000E-06  1.000E-06
       1.000E-06  1.000E-06  1.000E-06  1.000E-06  1.000E-06  1.000E-06  1.000E-06  1.000E-06  1.000E-06  1.000E-06  1.000E-06
       1.000E-06  1.000E-06  1.000E-06  1.000E-06  1.000E-06  1.000E-06  1.000E-06  1.000E-06  1.000E-06  1.000E-06  1.000E-06
       1.000E-06  1.000E-06  1.000E-06  1.000E-06  1.000E-06  1.000E-06  1.000E-06  1.000E-06  1.000E-06  1.000E-06  1.000E-06
       1.000E-06  1.000E-06  1.000E-06  1.000E-06  1.000E-06  1.000E-06  1.000E-06  1.000E-06  1.000E-06  1.000E-06  1.000E-06
       1.000E-06  1.000E-06  1.000E-06  1.000E-06  1.000E-06  1.000E-06  1.000E-06  1.000E-06  1.000E-06  1.000E-06  1.000E-06
       1.000E-06  1.000E-06  1.000E-06  1.000E-06  1.000E-06  1.000E-06  1.000E-06  1.000E-06  1.000E-06  1.000E-06  1.000E-06
       1.000E-06  1.000E-06  1.000E-06  1.000E-06  1.000E-06  1.000E-06  1.000E-06  1.000E-06  1.000E-06  1.000E-06  1.000E-06
       1.000E-06  1.000E-06  1.000E-06  1.000E-06  1.000E-06  1.000E-06  1.000E-06  1.000E-06  1.000E-06  1.000E-06  1.000E-06
       1.000E-06  1.000E-06  1.000E-06  1.000E-06  1.000E-06  1.000E-06  1.000E-06  1.000E-06  1.000E-06  1.000E-06  1.000E-06
       1.000E-06  1.000E-06  1.000E-06  1.000E-06  1.000E-06  1.000E-06  1.000E-06  1.000E-06  1.000E-06  1.000E-06  1.000E-06
       1.000E-06  1.000E-06  1.000E-06  1.000E-06  1.000E-06  1.000E-06  1.000E-06  1.000E-06  1.000E-06  1.000E-06  1.000E-06
       1.000E-06  1.000E-06  1.000E-06  1.000E-06  1.000E-06  1.000E-06  1.000E-06  1.000E-06  1.000E-06  1.000E-06  1.000E-06
       1.000E-06  1.000E-06  1.000E-06  1.000E-06  1.000E-06  1.000E-06  1.000E-06  1.000E-06  1.000E-06  1.000E-06  1.000E-06
       1.000E-06  1.000E-06  1.000E-06  1.000E-06  1.000E-06  1.000E-06  1.000E-06  1.000E-06  1.000E-06  1.000E-06  1.000E-06
       1.000E-06  1.000E-06  1.000E-06  1.000E-06  1.000E-06  1.000E-06  1.000E-06  1.000E-06  1.000E-06  1.000E-06  1.000E-06
       1.000E-06  1.000E-06  1.000E-06  1.000E-06  1.000E-06  1.000E-06  1.000E-06  1.000E-06  1.000E-06  1.000E-06  1.000E-06
       1.000E-06  1.000E-06  1.000E-06  1.000E-06  1.000E-06  1.000E-06  1.000E-06  1.000E-06  1.000E-06  1.000E-06  1.000E-06
       1.000E-06  1.000E-06  1.000E-06  1.000E-06  1.000E-06  1.000E-06  1.000E-06  1.000E-06  1.000E-06  1.000E-06  1.000E-06
       1.000E-06  1.000E-06  1.000E-06  1.000E-06  1.000E-06  1.000E-06  1.000E-06  1.000E-06  1.000E-06  1.000E-06  1.000E-06
       1.000E-06  1.000E-06  1.000E-06  1.000E-06  1.000E-06  1.000E-06  1.000E-06  1.000E-06  1.000E-06  1.000E-06  1.000E-06
       1.000E-06  1.000E-06  1.000E-06  1.000E-06  1.000E-06  1.000E-06  1.000E-06  1.000E-06  1.000E-06  1.000E-06  1.000E-06
       1.000E-06  1.000E-06  1.000E-06  1.000E-06  1.000E-06  1.000E-06  1.000E-06  1.000E-06  1.000E-06  1.000E-06  1.000E-06
       1.000E-06  1.000E-06  1.000E-06  1.000E-06  1.000E-06  1.000E-06  1.000E-06  1.000E-06  1.000E-06  1.000E-06  1.000E-06
       1.000E-06  1.000E-06  1.000E-06  1.000E-06  1.000E-06  1.000E-06  1.000E-06  1.000E-06  1.000E-06  1.000E-06  1.000E-06
       1.000E-06  1.000E-06  1.000E-06  1.000E-06  1.000E-06  1.000E-06  1.000E-06  1.000E-06  1.000E-06  1.000E-06  1.000E-06
       1.000E-06  1.000E-06  1.000E-06  1.000E-06  1.000E-06  1.000E-06  1.000E-06  1.000E-06  1.000E-06  1.000E-06  1.000E-06
       1.000E-06  1.000E-06  1.000E-06  1.000E-06  1.000E-06  1.000E-06  1.000E-06  1.000E-06  1.000E-06  1.000E-06  1.000E-06
       1.000E-06  1.000E-06  1.000E-06  1.000E-06  1.000E-06  1.000E-06  1.000E-06  1.000E-06  1.000E-06  1.000E-06  1.000E-06
       1.000E-06  1.000E-06  1.000E-06  1.000E-06  1.000E-06  1.000E-06  1.000E-06  1.000E-06  1.000E-06  1.000E-06  1.000E-06
       1.000E-06  1.000E-06  1.000E-06  1.000E-06  1.000E-06  1.000E-06  1.000E-06  1.000E-06  1.000E-06  1.000E-06  1.000E-06
       1.000E-06  1.000E-06  1.000E-06  1.000E-06  1.000E-06  1.000E-06  1.000E-06  1.000E-06  1.000E-06  1.000E-06  1.000E-06
       1.000E-06  1.000E-06  1.000E-06  1.000E-06  1.000E-06  1.000E-06  1.000E-06  1.000E-06  1.000E-06  1.000E-06  1.000E-06
       1.000E-06  1.000E-06  1.000E-06  1.000E-06  1.000E-06  1.000E-06  1.000E-06  1.000E-06  1.000E-06  1.000E-06  1.000E-06
       1.000E-06  1.000E-06  1.000E-06  1.000E-06  1.000E-06  1.000E-06  1.000E-06  1.000E-06  1.000E-06  1.000E-06  1.000E-06
       1.000E-06  1.000E-06  1.000E-06  1.000E-06  1.000E-06  1.000E-06  1.000E-06  1.000E-06  1.000E-06  1.000E-06  1.000E-06
       1.000E-06  1.000E-06  1.000E-06  1.000E-06  1.000E-06  1.000E-06  1.000E-06  1.000E-06  1.000E-06  1.000E-06  1.000E-06
       1.000E-06  1.000E-06  1.000E-06  1.000E-06  1.000E-06  1.000E-06  1.000E-06  1.000E-06  1.000E-06  1.000E-06  1.000E-06
       1.000E-06  1.000E-06  1.000E-06  1.000E-06  1.000E-06  1.000E-06  1.000E-06  1.000E-06  1.000E-06  1.000E-06  1.000E-06
       1.000E-06  1.000E-06  1.000E-06  1.000E-06  1.000E-06  1.000E-06  1.000E-06  1.000E-06  1.000E-06  1.000E-06  1.000E-06
       1.000E-06  1.000E-06  1.000E-06  1.000E-06  1.000E-06  1.000E-06  1.000E-06  1.000E-06  1.000E-06  1.000E-06  1.000E-06
       1.000E-06  1.000E-06  1.000E-06  1.000E-06  1.000E-06  1.000E-06  1.000E-06  1.000E-06  1.000E-06  1.000E-06  1.000E-06
       1.000E-06  1.000E-06  1.000E-06  1.000E-06  1.000E-06  1.000E-06  1.000E-06  1.000E-06  1.000E-06  1.000E-06  1.000E-06
       1.000E-06  1.000E-06  1.000E-06  1.000E-06  1.000E-06  1.000E-06  1.000E-06  1.000E-06  1.000E-06  1.000E-06  1.000E-06
       1.000E-06  1.000E-06  1.000E-06  1.000E-06  1.000E-06  1.000E-06  1.000E-06  1.000E-06  1.000E-06  1.000E-06  1.000E-06
       1.000E-06  1.000E-06  1.000E-06  1.000E-06  1.000E-06  1.000E-06  1.000E-06  1.000E-06  1.000E-06  1.000E-06  1.000E-06
       1.000E-06  1.000E-06  1.000E-06  1.000E-06  1.000E-06  1.000E-06  1.000E-06  1.000E-06  1.000E-06  1.000E-06  1.000E-06
       1.000E-06  1.000E-06  1.000E-06  1.000E-06  1.000E-06  1.000E-06  1.000E-06  1.000E-06  1.000E-06  1.000E-06  1.000E-06
       1.000E-06  1.000E-06  1.000E-06  1.000E-06  1.000E-06  1.000E-06  1.000E-06  1.000E-06  1.000E-06  1.000E-06  1.000E-06
       1.000E-06  1.000E-06  1.000E-06  1.000E-06  1.000E-06  1.000E-06  1.000E-06  1.000E-06  1.000E-06  1.000E-06  1.000E-06
       1.000E-06  1.000E-06  1.000E-06  1.000E-06  1.000E-06  1.000E-06  1.000E-06  1.000E-06  1.000E-06  1.000E-06  1.000E-06
       1.000E-06  1.000E-06  1.000E-06  1.000E-06  1.000E-06  1.000E-06  1.000E-06  1.000E-06  1.000E-06  1.000E-06  1.000E-06
       1.000E-06  1.000E-06  1.000E-06  1.000E-06  1.000E-06  1.000E-06  1.000E-06  1.000E-06  1.000E-06  1.000E-06  1.000E-06
       1.000E-06  1.000E-06  1.000E-06  1.000E-06  1.000E-06  1.000E-06  1.000E-06  1.000E-06  1.000E-06  1.000E-06  1.000E-06
       1.000E-06  1.000E-06  1.000E-06  1.000E-06  1.000E-06  1.000E-06  1.000E-06  1.000E-06  1.000E-06  1.000E-06  1.000E-06
       1.000E-06  1.000E-06  1.000E-06  1.000E-06  1.000E-06  1.000E-06  1.000E-06  1.000E-06  1.000E-06  1.000E-06  1.000E-06
       1.000E-06  1.000E-06  1.000E-06  1.000E-06  1.000E-06  1.000E-06  1.000E-06  1.000E-06  1.000E-06  1.000E-06  1.000E-06
       1.000E-06  1.000E-06  1.000E-06  1.000E-06  1.000E-06  1.000E-06  1.000E-06  1.000E-06  1.000E-06  1.000E-06  1.000E-06
       1.000E-06  1.000E-06  1.000E-06  1.000E-06  1.000E-06  1.000E-06  1.000E-06  1.000E-06  1.000E-06  1.000E-06  1.000E-06
       1.000E-06  1.000E-06  1.000E-06  1.000E-06  1.000E-06  1.000E-06  1.000E-06  1.000E-06  1.000E-06  1.000E-06  1.000E-06
       1.000E-06  1.000E-06  1.000E-06  1.000E-06  1.000E-06  1.000E-06  1.000E-06  1.000E-06  1.000E-06  1.000E-06  1.000E-06
       1.000E-06  1.000E-06  1.000E-06  1.000E-06  1.000E-06  1.000E-06  1.000E-06  1.000E-06  1.000E-06  1.000E-06  1.000E-06
       1.000E-06  1.000E-06  1.000E-06  1.000E-06  1.000E-06  1.000E-06  1.000E-06  1.000E-06  1.000E-06  1.000E-06  1.000E-06
       1.000E-06  1.000E-06  1.000E-06  1.000E-06  1.000E-06  1.000E-06  1.000E-06  1.000E-06  1.000E-06  1.000E-06  1.000E-06
       1.000E-06  1.000E-06  1.000E-06  1.000E-06  1.000E-06  1.000E-06  1.000E-06  1.000E-06  1.000E-06  1.000E-06  1.000E-06
       1.000E-06  1.000E-06  1.000E-06  1.000E-06  1.000E-06  1.000E-06  1.000E-06  1.000E-06  1.000E-06  1.000E-06  1.000E-06
       1.000E-06  1.000E-06  1.000E-06  1.000E-06  1.000E-06  1.000E-06  1.000E-06  1.000E-06  1.000E-06  1.000E-06  1.000E-06
       1.000E-06  1.000E-06  1.000E-06  1.000E-06  1.000E-06  1.000E-06  1.000E-06  1.000E-06  1.000E-06  1.000E-06  1.000E-06
       1.000E-06  1.000E-06  1.000E-06  1.000E-06  1.000E-06  1.000E-06  1.000E-06  1.000E-06  1.000E-06  1.000E-06  1.000E-06
       1.000E-06  1.000E-06  1.000E-06  1.000E-06  1.000E-06  1.000E-06  1.000E-06  1.000E-06  1.000E-06  1.000E-06  1.000E-06
       1.000E-06  1.000E-06  1.000E-06  1.000E-06  1.000E-06  1.000E-06  1.000E-06  1.000E-06  1.000E-06  1.000E-06  1.000E-06
       1.000E-06  1.000E-06  1.000E-06  1.000E-06  1.000E-06  1.000E-06  1.000E-06  1.000E-06  1.000E-06  1.000E-06  1.000E-06
       1.000E-06  1.000E-06  1.000E-06  1.000E-06  1.000E-06  1.000E-06  1.000E-06  1.000E-06  1.000E-06  1.000E-06  1.000E-06
       1.000E-06  1.000E-06  1.000E-06  1.000E-06  1.000E-06  1.000E-06  1.000E-06  1.000E-06  1.000E-06  1.000E-06  1.000E-06
       1.000E-06  1.000E-06  1.000E-06  1.000E-06  1.000E-06  1.000E-06  1.000E-06  1.000E-06  1.000E-06  1.000E-06  1.000E-06
       1.000E-06  1.000E-06  1.000E-06  1.000E-06  1.000E-06  1.000E-06  1.000E-06  1.000E-06  1.000E-06  1.000E-06  1.000E-06
       1.000E-06  1.000E-06  1.000E-06  1.000E-06  1.000E-06  1.000E-06  1.000E-06  1.000E-06  1.000E-06  1.000E-06  1.000E-06
       1.000E-06  1.000E-06  1.000E-06  1.000E-06  1.000E-06  1.000E-06  1.000E-06  1.000E-06  1.000E-06  1.000E-06  1.000E-06
       1.000E-06  1.000E-06  1.000E-06  1.000E-06  1.000E-06  1.000E-06  1.000E-06  1.000E-06  1.000E-06  1.000E-06  1.000E-06
       1.000E-06  1.000E-06  1.000E-06  1.000E-06  1.000E-06  1.000E-06  1.000E-06  1.000E-06  1.000E-06  1.000E-06  1.000E-06
       1.000E-06  1.000E-06  1.000E-06  1.000E-06  1.000E-06  1.000E-06  1.000E-06  1.000E-06  1.000E-06  1.000E-06  1.000E-06
       1.000E-06  1.000E-06  1.000E-06  1.000E-06  1.000E-06  1.000E-06  1.000E-06  1.000E-06  1.000E-06  1.000E-06  1.000E-06
       1.000E-06  1.000E-06  1.000E-06  1.000E-06  1.000E-06  1.000E-06  1.000E-06  1.000E-06  1.000E-06  1.000E-06  1.000E-06
       1.000E-06  1.000E-06  1.000E-06  1.000E-06  1.000E-06  1.000E-06  1.000E-06  1.000E-06  1.000E-06  1.000E-06  1.000E-06
       1.000E-06  1.000E-06  1.000E-06  1.000E-06  1.000E-06  1.000E-06  1.000E-06  1.000E-06  1.000E-06  1.000E-06  1.000E-06
       1.000E-06  1.000E-06  1.000E-06  1.000E-06  1.000E-06  1.000E-06  1.000E-06  1.000E-06  1.000E-06  1.000E-06  1.000E-06
       1.000E-06  1.000E-06  1.000E-06  1.000E-06  1.000E-06  1.000E-06  1.000E-06  1.000E-06  1.000E-06  1.000E-06  1.000E-06
       1.000E-06  1.000E-06  1.000E-06  1.000E-06  1.000E-06  1.000E-06  1.000E-06  1.000E-06  1.000E-06  1.000E-06  1.000E-06
       1.000E-06  1.000E-06  1.000E-06  1.000E-06  1.000E-06  1.000E-06  1.000E-06  1.000E-06  1.000E-06  1.000E-06  1.000E-06
       1.000E-06  1.000E-06  1.000E-06  1.000E-06  1.000E-06  1.000E-06  1.000E-06  1.000E-06  1.000E-06  1.000E-06  1.000E-06
       1.000E-06  1.000E-06  1.000E-06  1.000E-06  1.000E-06  1.000E-06  1.000E-06  1.000E-06  1.000E-06  1.000E-06  1.000E-06
       1.000E-06  1.000E-06  1.000E-06  1.000E-06  1.000E-06  1.000E-06  1.000E-06  1.000E-06  1.000E-06  1.000E-06  1.000E-06
       1.000E-06  1.000E-06  1.000E-06  1.000E-06  1.000E-06  1.000E-06  1.000E-06  1.000E-06  1.000E-06  1.000E-06  1.000E-06
       1.000E-06  1.000E-06  1.000E-06  1.000E-06  1.000E-06  1.000E-06  1.000E-06  1.000E-06  1.000E-06  1.000E-06  1.000E-06
       1.000E-06  1.000E-06  1.000E-06  1.000E-06  1.000E-06  1.000E-06  1.000E-06  1.000E-06  1.000E-06  1.000E-06  1.000E-06
       1.000E-06  1.000E-06  1.000E-06  1.000E-06  1.000E-06  1.000E-06  1.000E-06  1.000E-06  1.000E-06  1.000E-06  1.000E-06
       1.000E-06  1.000E-06  1.000E-06  1.000E-06  1.000E-06  1.000E-06  1.000E-06  1.000E-06  1.000E-06  1.000E-06  1.000E-06
       1.000E-06  1.000E-06  1.000E-06  1.000E-06  1.000E-06  1.000E-06  1.000E-06  1.000E-06  1.000E-06  1.000E-06  1.000E-06
       1.000E-06  1.000E-06  1.000E-06  1.000E-06  1.000E-06  1.000E-06  1.000E-06  1.000E-06  1.000E-06  1.000E-06  1.000E-06
       1.000E-06  1.000E-06  1.000E-06  1.000E-06  1.000E-06  1.000E-06  1.000E-06  1.000E-06  1.000E-06  1.000E-06  1.000E-06
       1.000E-06  1.000E-06  1.000E-06  1.000E-06  1.000E-06  1.000E-06  1.000E-06  1.000E-06  1.000E-06  1.000E-06  1.000E-06
       1.000E-06  1.000E-06  1.000E-06  1.000E-06  1.000E-06  1.000E-06  1.000E-06  1.000E-06  1.000E-06  1.000E-06  1.000E-06
       1.000E-06  1.000E-06  1.000E-06  1.000E-06  1.000E-06  1.000E-06  1.000E-06  1.000E-06  1.000E-06  1.000E-06  1.000E-06
       1.000E-06  1.000E-06  1.000E-06  1.000E-06  1.000E-06  1.000E-06  1.000E-06  1.000E-06  1.000E-06  1.000E-06  1.000E-06
       1.000E-06  1.000E-06  1.000E-06  1.000E-06  1.000E-06  1.000E-06  1.000E-06  1.000E-06  1.000E-06  1.000E-06  1.000E-06
       1.000E-06  1.000E-06  1.000E-06  1.000E-06  1.000E-06  1.000E-06  1.000E-06  1.000E-06  1.000E-06  1.000E-06  1.000E-06
       1.000E-06  1.000E-06  1.000E-06  1.000E-06  1.000E-06  1.000E-06  1.000E-06  1.000E-06  1.000E-06  1.000E-06  1.000E-06
       1.000E-06  1.000E-06  1.000E-06  1.000E-06  1.000E-06  1.000E-06  1.000E-06  1.000E-06  1.000E-06  1.000E-06  1.000E-06

         SPECIFIC STORAGE FOR LAYER 2
       1.000E-06  1.000E-06  1.000E-06  1.000E-06  1.000E-06  1.000E-06  1.000E-06  1.000E-06  1.000E-06  1.000E-06  1.000E-06
       1.000E-06  1.000E-06  1.000E-06  1.000E-06  1.000E-06  1.000E-06  1.000E-06  1.000E-06  1.000E-06  1.000E-06  1.000E-06
       1.000E-06  1.000E-06  1.000E-06  1.000E-06  1.000E-06  1.000E-06  1.000E-06  1.000E-06  1.000E-06  1.000E-06  1.000E-06
       1.000E-06  1.000E-06  1.000E-06  1.000E-06  1.000E-06  1.000E-06  1.000E-06  1.000E-06  1.000E-06  1.000E-06  1.000E-06
       1.000E-06  1.000E-06  1.000E-06  1.000E-06  1.000E-06  1.000E-06  1.000E-06  1.000E-06  1.000E-06  1.000E-06  1.000E-06
       1.000E-06  1.000E-06  1.000E-06  1.000E-06  1.000E-06  1.000E-06  1.000E-06  1.000E-06  1.000E-06  1.000E-06  1.000E-06
       1.000E-06  1.000E-06  1.000E-06  1.000E-06  1.000E-06  1.000E-06  1.000E-06  1.000E-06  1.000E-06  1.000E-06  1.000E-06
       1.000E-06  1.000E-06  1.000E-06  1.000E-06  1.000E-06  1.000E-06  1.000E-06  1.000E-06  1.000E-06  1.000E-06  1.000E-06
       1.000E-06  1.000E-06  1.000E-06  1.000E-06  1.000E-06  1.000E-06  1.000E-06  1.000E-06  1.000E-06  1.000E-06  1.000E-06
       1.000E-06  1.000E-06  1.000E-06  1.000E-06  1.000E-06  1.000E-06  1.000E-06  1.000E-06  1.000E-06  1.000E-06  1.000E-06
       1.000E-06  1.000E-06  1.000E-06  1.000E-06  1.000E-06  1.000E-06  1.000E-06  1.000E-06  1.000E-06  1.000E-06  1.000E-06
       1.000E-06  1.000E-06  1.000E-06  1.000E-06  1.000E-06  1.000E-06  1.000E-06  1.000E-06  1.000E-06  1.000E-06  1.000E-06
       1.000E-06  1.000E-06  1.000E-06  1.000E-06  1.000E-06  1.000E-06  1.000E-06  1.000E-06  1.000E-06  1.000E-06  1.000E-06
       1.000E-06  1.000E-06  1.000E-06  1.000E-06  1.000E-06  1.000E-06  1.000E-06  1.000E-06  1.000E-06  1.000E-06  1.000E-06
       1.000E-06  1.000E-06  1.000E-06  1.000E-06  1.000E-06  1.000E-06  1.000E-06  1.000E-06  1.000E-06  1.000E-06  1.000E-06
       1.000E-06  1.000E-06  1.000E-06  1.000E-06  1.000E-06  1.000E-06  1.000E-06  1.000E-06  1.000E-06  1.000E-06  1.000E-06
       1.000E-06  1.000E-06  1.000E-06  1.000E-06  1.000E-06  1.000E-06  1.000E-06  1.000E-06  1.000E-06  1.000E-06  1.000E-06
       1.000E-06  1.000E-06  1.000E-06  1.000E-06  1.000E-06  1.000E-06  1.000E-06  1.000E-06  1.000E-06  1.000E-06  1.000E-06
       1.000E-06  1.000E-06  1.000E-06  1.000E-06  1.000E-06  1.000E-06  1.000E-06  1.000E-06  1.000E-06  1.000E-06  1.000E-06
       1.000E-06  1.000E-06  1.000E-06  1.000E-06  1.000E-06  1.000E-06  1.000E-06  1.000E-06  1.000E-06  1.000E-06  1.000E-06
       1.000E-06  1.000E-06  1.000E-06  1.000E-06  1.000E-06  1.000E-06  1.000E-06  1.000E-06  1.000E-06  1.000E-06  1.000E-06
       1.000E-06  1.000E-06  1.000E-06  1.000E-06  1.000E-06  1.000E-06  1.000E-06  1.000E-06  1.000E-06  1.000E-06  1.000E-06
       1.000E-06  1.000E-06  1.000E-06  1.000E-06  1.000E-06  1.000E-06  1.000E-06  1.000E-06  1.000E-06  1.000E-06  1.000E-06
       1.000E-06  1.000E-06  1.000E-06  1.000E-06  1.000E-06  1.000E-06  1.000E-06  1.000E-06  1.000E-06  1.000E-06  1.000E-06
       1.000E-06  1.000E-06  1.000E-06  1.000E-06  1.000E-06  1.000E-06  1.000E-06  1.000E-06  1.000E-06  1.000E-06  1.000E-06
       1.000E-06  1.000E-06  1.000E-06  1.000E-06  1.000E-06  1.000E-06  1.000E-06  1.000E-06  1.000E-06  1.000E-06  1.000E-06
       1.000E-06  1.000E-06  1.000E-06  1.000E-06  1.000E-06  1.000E-06  1.000E-06  1.000E-06  1.000E-06  1.000E-06  1.000E-06
       1.000E-06  1.000E-06  1.000E-06  1.000E-06  1.000E-06  1.000E-06  1.000E-06  1.000E-06  1.000E-06  1.000E-06  1.000E-06
       1.000E-06  1.000E-06  1.000E-06  1.000E-06  1.000E-06  1.000E-06  1.000E-06  1.000E-06  1.000E-06  1.000E-06  1.000E-06
       1.000E-06  1.000E-06  1.000E-06  1.000E-06  1.000E-06  1.000E-06  1.000E-06  1.000E-06  1.000E-06  1.000E-06  1.000E-06
       1.000E-06  1.000E-06  1.000E-06  1.000E-06  1.000E-06  1.000E-06  1.000E-06  1.000E-06  1.000E-06  1.000E-06  1.000E-06
       1.000E-06  1.000E-06  1.000E-06  1.000E-06  1.000E-06  1.000E-06  1.000E-06  1.000E-06  1.000E-06  1.000E-06  1.000E-06
       1.000E-06  1.000E-06  1.000E-06  1.000E-06  1.000E-06  1.000E-06  1.000E-06  1.000E-06  1.000E-06  1.000E-06  1.000E-06
       1.000E-06  1.000E-06  1.000E-06  1.000E-06  1.000E-06  1.000E-06  1.000E-06  1.000E-06  1.000E-06  1.000E-06  1.000E-06
       1.000E-06  1.000E-06  1.000E-06  1.000E-06  1.000E-06  1.000E-06  1.000E-06  1.000E-06  1.000E-06  1.000E-06  1.000E-06
       1.000E-06  1.000E-06  1.000E-06  1.000E-06  1.000E-06  1.000E-06  1.000E-06  1.000E-06  1.000E-06  1.000E-06  1.000E-06
       1.000E-06  1.000E-06  1.000E-06  1.000E-06  1.000E-06  1.000E-06  1.000E-06  1.000E-06  1.000E-06  1.000E-06  1.000E-06
       1.000E-06  1.000E-06  1.000E-06  1.000E-06  1.000E-06  1.000E-06  1.000E-06  1.000E-06  1.000E-06  1.000E-06  1.000E-06
       1.000E-06  1.000E-06  1.000E-06  1.000E-06  1.000E-06  1.000E-06  1.000E-06  1.000E-06  1.000E-06  1.000E-06  1.000E-06
       1.000E-06  1.000E-06  1.000E-06  1.000E-06  1.000E-06  1.000E-06  1.000E-06  1.000E-06  1.000E-06  1.000E-06  1.000E-06
       1.000E-06  1.000E-06  1.000E-06  1.000E-06  1.000E-06  1.000E-06  1.000E-06  1.000E-06  1.000E-06  1.000E-06  1.000E-06
       1.000E-06  1.000E-06  1.000E-06  1.000E-06  1.000E-06  1.000E-06  1.000E-06  1.000E-06  1.000E-06  1.000E-06  1.000E-06
       1.000E-06  1.000E-06  1.000E-06  1.000E-06  1.000E-06  1.000E-06  1.000E-06  1.000E-06  1.000E-06  1.000E-06  1.000E-06
       1.000E-06  1.000E-06  1.000E-06  1.000E-06  1.000E-06  1.000E-06  1.000E-06  1.000E-06  1.000E-06  1.000E-06  1.000E-06
       1.000E-06  1.000E-06  1.000E-06  1.000E-06  1.000E-06  1.000E-06  1.000E-06  1.000E-06  1.000E-06  1.000E-06  1.000E-06
       1.000E-06  1.000E-06  1.000E-06  1.000E-06  1.000E-06  1.000E-06  1.000E-06  1.000E-06  1.000E-06  1.000E-06  1.000E-06
       1.000E-06  1.000E-06  1.000E-06  1.000E-06  1.000E-06  1.000E-06  1.000E-06  1.000E-06  1.000E-06  1.000E-06  1.000E-06
       1.000E-06  1.000E-06  1.000E-06  1.000E-06  1.000E-06  1.000E-06  1.000E-06  1.000E-06  1.000E-06  1.000E-06  1.000E-06
       1.000E-06  1.000E-06  1.000E-06  1.000E-06  1.000E-06  1.000E-06  1.000E-06  1.000E-06  1.000E-06  1.000E-06  1.000E-06
       1.000E-06  1.000E-06  1.000E-06  1.000E-06  1.000E-06  1.000E-06  1.000E-06  1.000E-06  1.000E-06  1.000E-06  1.000E-06
       1.000E-06  1.000E-06  1.000E-06  1.000E-06  1.000E-06  1.000E-06  1.000E-06  1.000E-06  1.000E-06  1.000E-06  1.000E-06
       1.000E-06  1.000E-06  1.000E-06  1.000E-06  1.000E-06  1.000E-06  1.000E-06  1.000E-06  1.000E-06  1.000E-06  1.000E-06
       1.000E-06  1.000E-06  1.000E-06  1.000E-06  1.000E-06  1.000E-06  1.000E-06  1.000E-06  1.000E-06  1.000E-06  1.000E-06
       1.000E-06  1.000E-06  1.000E-06  1.000E-06  1.000E-06  1.000E-06  1.000E-06  1.000E-06  1.000E-06  1.000E-06  1.000E-06
       1.000E-06  1.000E-06  1.000E-06  1.000E-06  1.000E-06  1.000E-06  1.000E-06  1.000E-06  1.000E-06  1.000E-06  1.000E-06
       1.000E-06  1.000E-06  1.000E-06  1.000E-06  1.000E-06  1.000E-06  1.000E-06  1.000E-06  1.000E-06  1.000E-06  1.000E-06
       1.000E-06  1.000E-06  1.000E-06  1.000E-06  1.000E-06  1.000E-06  1.000E-06  1.000E-06  1.000E-06  1.000E-06  1.000E-06
       1.000E-06  1.000E-06  1.000E-06  1.000E-06  1.000E-06  1.000E-06  1.000E-06  1.000E-06  1.000E-06  1.000E-06  1.000E-06
       1.000E-06  1.000E-06  1.000E-06  1.000E-06  1.000E-06  1.000E-06  1.000E-06  1.000E-06  1.000E-06  1.000E-06  1.000E-06
       1.000E-06  1.000E-06  1.000E-06  1.000E-06  1.000E-06  1.000E-06  1.000E-06  1.000E-06  1.000E-06  1.000E-06  1.000E-06
       1.000E-06  1.000E-06  1.000E-06  1.000E-06  1.000E-06  1.000E-06  1.000E-06  1.000E-06  1.000E-06  1.000E-06  1.000E-06
       1.000E-06  1.000E-06  1.000E-06  1.000E-06  1.000E-06  1.000E-06  1.000E-06  1.000E-06  1.000E-06  1.000E-06  1.000E-06
       1.000E-06  1.000E-06  1.000E-06  1.000E-06  1.000E-06  1.000E-06  1.000E-06  1.000E-06  1.000E-06  1.000E-06  1.000E-06
       1.000E-06  1.000E-06  1.000E-06  1.000E-06  1.000E-06  1.000E-06  1.000E-06  1.000E-06  1.000E-06  1.000E-06  1.000E-06
       1.000E-06  1.000E-06  1.000E-06  1.000E-06  1.000E-06  1.000E-06  1.000E-06  1.000E-06  1.000E-06  1.000E-06  1.000E-06
       1.000E-06  1.000E-06  1.000E-06  1.000E-06  1.000E-06  1.000E-06  1.000E-06  1.000E-06  1.000E-06  1.000E-06  1.000E-06
       1.000E-06  1.000E-06  1.000E-06  1.000E-06  1.000E-06  1.000E-06  1.000E-06  1.000E-06  1.000E-06  1.000E-06  1.000E-06
       1.000E-06  1.000E-06  1.000E-06  1.000E-06  1.000E-06  1.000E-06  1.000E-06  1.000E-06  1.000E-06  1.000E-06  1.000E-06
       1.000E-06  1.000E-06  1.000E-06  1.000E-06  1.000E-06  1.000E-06  1.000E-06  1.000E-06  1.000E-06  1.000E-06  1.000E-06
       1.000E-06  1.000E-06  1.000E-06  1.000E-06  1.000E-06  1.000E-06  1.000E-06  1.000E-06  1.000E-06  1.000E-06  1.000E-06
       1.000E-06  1.000E-06  1.000E-06  1.000E-06  1.000E-06  1.000E-06  1.000E-06  1.000E-06  1.000E-06  1.000E-06  1.000E-06
       1.000E-06  1.000E-06  1.000E-06  1.000E-06  1.000E-06  1.000E-06  1.000E-06  1.000E-06  1.000E-06  1.000E-06  1.000E-06
       1.000E-06  1.000E-06  1.000E-06  1.000E-06  1.000E-06  1.000E-06  1.000E-06  1.000E-06  1.000E-06  1.000E-06  1.000E-06
       1.000E-06  1.000E-06  1.000E-06  1.000E-06  1.000E-06  1.000E-06  1.000E-06  1.000E-06  1.000E-06  1.000E-06  1.000E-06
       1.000E-06  1.000E-06  1.000E-06  1.000E-06  1.000E-06  1.000E-06  1.000E-06  1.000E-06  1.000E-06  1.000E-06  1.000E-06
       1.000E-06  1.000E-06  1.000E-06  1.000E-06  1.000E-06  1.000E-06  1.000E-06  1.000E-06  1.000E-06  1.000E-06  1.000E-06
       1.000E-06  1.000E-06  1.000E-06  1.000E-06  1.000E-06  1.000E-06  1.000E-06  1.000E-06  1.000E-06  1.000E-06  1.000E-06
       1.000E-06  1.000E-06  1.000E-06  1.000E-06  1.000E-06  1.000E-06  1.000E-06  1.000E-06  1.000E-06  1.000E-06  1.000E-06
       1.000E-06  1.000E-06  1.000E-06  1.000E-06  1.000E-06  1.000E-06  1.000E-06  1.000E-06  1.000E-06  1.000E-06  1.000E-06
       1.000E-06  1.000E-06  1.000E-06  1.000E-06  1.000E-06  1.000E-06  1.000E-06  1.000E-06  1.000E-06  1.000E-06  1.000E-06
       1.000E-06  1.000E-06  1.000E-06  1.000E-06  1.000E-06  1.000E-06  1.000E-06  1.000E-06  1.000E-06  1.000E-06  1.000E-06
       1.000E-06  1.000E-06  1.000E-06  1.000E-06  1.000E-06  1.000E-06  1.000E-06  1.000E-06  1.000E-06  1.000E-06  1.000E-06
       1.000E-06  1.000E-06  1.000E-06  1.000E-06  1.000E-06  1.000E-06  1.000E-06  1.000E-06  1.000E-06  1.000E-06  1.000E-06
       1.000E-06  1.000E-06  1.000E-06  1.000E-06  1.000E-06  1.000E-06  1.000E-06  1.000E-06  1.000E-06  1.000E-06  1.000E-06
       1.000E-06  1.000E-06  1.000E-06  1.000E-06  1.000E-06  1.000E-06  1.000E-06  1.000E-06  1.000E-06  1.000E-06  1.000E-06
       1.000E-06  1.000E-06  1.000E-06  1.000E-06  1.000E-06  1.000E-06  1.000E-06  1.000E-06  1.000E-06  1.000E-06  1.000E-06
       1.000E-06  1.000E-06  1.000E-06  1.000E-06  1.000E-06  1.000E-06  1.000E-06  1.000E-06  1.000E-06  1.000E-06  1.000E-06
       1.000E-06  1.000E-06  1.000E-06  1.000E-06  1.000E-06  1.000E-06  1.000E-06  1.000E-06  1.000E-06  1.000E-06  1.000E-06
       1.000E-06  1.000E-06  1.000E-06  1.000E-06  1.000E-06  1.000E-06  1.000E-06  1.000E-06  1.000E-06  1.000E-06  1.000E-06
       1.000E-06  1.000E-06  1.000E-06  1.000E-06  1.000E-06  1.000E-06  1.000E-06  1.000E-06  1.000E-06  1.000E-06  1.000E-06
       1.000E-06  1.000E-06  1.000E-06  1.000E-06  1.000E-06  1.000E-06  1.000E-06  1.000E-06  1.000E-06  1.000E-06  1.000E-06
       1.000E-06  1.000E-06  1.000E-06  1.000E-06  1.000E-06  1.000E-06  1.000E-06  1.000E-06  1.000E-06  1.000E-06  1.000E-06
       1.000E-06  1.000E-06  1.000E-06  1.000E-06  1.000E-06  1.000E-06  1.000E-06  1.000E-06  1.000E-06  1.000E-06  1.000E-06
       1.000E-06  1.000E-06  1.000E-06  1.000E-06  1.000E-06  1.000E-06  1.000E-06  1.000E-06  1.000E-06  1.000E-06  1.000E-06
       1.000E-06  1.000E-06  1.000E-06  1.000E-06  1.000E-06  1.000E-06  1.000E-06  1.000E-06  1.000E-06  1.000E-06  1.000E-06
       1.000E-06  1.000E-06  1.000E-06  1.000E-06  1.000E-06  1.000E-06  1.000E-06  1.000E-06  1.000E-06  1.000E-06  1.000E-06
       1.000E-06  1.000E-06  1.000E-06  1.000E-06  1.000E-06  1.000E-06  1.000E-06  1.000E-06  1.000E-06  1.000E-06  1.000E-06
       1.000E-06  1.000E-06  1.000E-06  1.000E-06  1.000E-06  1.000E-06  1.000E-06  1.000E-06  1.000E-06  1.000E-06  1.000E-06
       1.000E-06  1.000E-06  1.000E-06  1.000E-06  1.000E-06  1.000E-06  1.000E-06  1.000E-06  1.000E-06  1.000E-06  1.000E-06
       1.000E-06  1.000E-06  1.000E-06  1.000E-06  1.000E-06  1.000E-06  1.000E-06  1.000E-06  1.000E-06  1.000E-06  1.000E-06
       1.000E-06  1.000E-06  1.000E-06  1.000E-06  1.000E-06  1.000E-06  1.000E-06  1.000E-06  1.000E-06  1.000E-06  1.000E-06
       1.000E-06  1.000E-06  1.000E-06  1.000E-06  1.000E-06  1.000E-06  1.000E-06  1.000E-06  1.000E-06  1.000E-06  1.000E-06
       1.000E-06  1.000E-06  1.000E-06  1.000E-06  1.000E-06  1.000E-06  1.000E-06  1.000E-06  1.000E-06  1.000E-06  1.000E-06
       1.000E-06  1.000E-06  1.000E-06  1.000E-06  1.000E-06  1.000E-06  1.000E-06  1.000E-06  1.000E-06  1.000E-06  1.000E-06
       1.000E-06  1.000E-06  1.000E-06  1.000E-06  1.000E-06  1.000E-06  1.000E-06  1.000E-06  1.000E-06  1.000E-06  1.000E-06
       1.000E-06  1.000E-06  1.000E-06  1.000E-06  1.000E-06  1.000E-06  1.000E-06  1.000E-06  1.000E-06  1.000E-06  1.000E-06
       1.000E-06  1.000E-06  1.000E-06  1.000E-06  1.000E-06  1.000E-06  1.000E-06  1.000E-06  1.000E-06  1.000E-06  1.000E-06
       1.000E-06  1.000E-06  1.000E-06  1.000E-06  1.000E-06  1.000E-06  1.000E-06  1.000E-06  1.000E-06  1.000E-06  1.000E-06
       1.000E-06  1.000E-06  1.000E-06  1.000E-06  1.000E-06  1.000E-06  1.000E-06  1.000E-06  1.000E-06  1.000E-06  1.000E-06
       1.000E-06  1.000E-06  1.000E-06  1.000E-06  1.000E-06  1.000E-06  1.000E-06  1.000E-06  1.000E-06  1.000E-06  1.000E-06
       1.000E-06  1.000E-06  1.000E-06  1.000E-06  1.000E-06  1.000E-06  1.000E-06  1.000E-06  1.000E-06  1.000E-06  1.000E-06
       1.000E-06  1.000E-06  1.000E-06  1.000E-06  1.000E-06  1.000E-06  1.000E-06  1.000E-06  1.000E-06  1.000E-06  1.000E-06
       1.000E-06  1.000E-06  1.000E-06  1.000E-06  1.000E-06  1.000E-06  1.000E-06  1.000E-06  1.000E-06  1.000E-06  1.000E-06
       1.000E-06  1.000E-06  1.000E-06  1.000E-06  1.000E-06  1.000E-06  1.000E-06  1.000E-06  1.000E-06  1.000E-06  1.000E-06
       1.000E-06  1.000E-06  1.000E-06  1.000E-06  1.000E-06  1.000E-06  1.000E-06  1.000E-06  1.000E-06  1.000E-06  1.000E-06
       1.000E-06  1.000E-06  1.000E-06  1.000E-06  1.000E-06  1.000E-06  1.000E-06  1.000E-06  1.000E-06  1.000E-06  1.000E-06
       1.000E-06  1.000E-06  1.000E-06  1.000E-06  1.000E-06  1.000E-06  1.000E-06  1.000E-06  1.000E-06  1.000E-06  1.000E-06
       1.000E-06  1.000E-06  1.000E-06  1.000E-06  1.000E-06  1.000E-06  1.000E-06  1.000E-06  1.000E-06  1.000E-06  1.000E-06
       1.000E-06  1.000E-06  1.000E-06  1.000E-06  1.000E-06  1.000E-06  1.000E-06  1.000E-06  1.000E-06  1.000E-06  1.000E-06
       1.000E-06  1.000E-06  1.000E-06  1.000E-06  1.000E-06  1.000E-06  1.000E-06  1.000E-06  1.000E-06  1.000E-06  1.000E-06
       1.000E-06  1.000E-06  1.000E-06  1.000E-06  1.000E-06  1.000E-06  1.000E-06  1.000E-06  1.000E-06  1.000E-06  1.000E-06
       1.000E-06  1.000E-06  1.000E-06  1.000E-06  1.000E-06  1.000E-06  1.000E-06  1.000E-06  1.000E-06  1.000E-06  1.000E-06
       1.000E-06  1.000E-06  1.000E-06  1.000E-06  1.000E-06  1.000E-06  1.000E-06  1.000E-06  1.000E-06  1.000E-06  1.000E-06
       1.000E-06  1.000E-06  1.000E-06  1.000E-06  1.000E-06  1.000E-06  1.000E-06  1.000E-06  1.000E-06  1.000E-06  1.000E-06
       1.000E-06  1.000E-06  1.000E-06  1.000E-06  1.000E-06  1.000E-06  1.000E-06  1.000E-06  1.000E-06  1.000E-06  1.000E-06
       1.000E-06  1.000E-06  1.000E-06  1.000E-06  1.000E-06  1.000E-06  1.000E-06  1.000E-06  1.000E-06  1.000E-06  1.000E-06
       1.000E-06  1.000E-06  1.000E-06  1.000E-06  1.000E-06  1.000E-06  1.000E-06  1.000E-06  1.000E-06  1.000E-06  1.000E-06
       1.000E-06  1.000E-06  1.000E-06  1.000E-06  1.000E-06  1.000E-06  1.000E-06  1.000E-06  1.000E-06  1.000E-06  1.000E-06
       1.000E-06  1.000E-06  1.000E-06  1.000E-06  1.000E-06  1.000E-06  1.000E-06  1.000E-06  1.000E-06  1.000E-06  1.000E-06
       1.000E-06  1.000E-06  1.000E-06  1.000E-06  1.000E-06  1.000E-06  1.000E-06  1.000E-06  1.000E-06  1.000E-06  1.000E-06
       1.000E-06  1.000E-06  1.000E-06  1.000E-06  1.000E-06  1.000E-06  1.000E-06  1.000E-06  1.000E-06  1.000E-06  1.000E-06
       1.000E-06  1.000E-06  1.000E-06  1.000E-06  1.000E-06  1.000E-06  1.000E-06  1.000E-06  1.000E-06  1.000E-06  1.000E-06
       1.000E-06  1.000E-06  1.000E-06  1.000E-06  1.000E-06  1.000E-06  1.000E-06  1.000E-06  1.000E-06  1.000E-06  1.000E-06
       1.000E-06  1.000E-06  1.000E-06  1.000E-06  1.000E-06  1.000E-06  1.000E-06  1.000E-06  1.000E-06  1.000E-06  1.000E-06
       1.000E-06  1.000E-06  1.000E-06  1.000E-06  1.000E-06  1.000E-06  1.000E-06  1.000E-06  1.000E-06  1.000E-06  1.000E-06
       1.000E-06  1.000E-06  1.000E-06  1.000E-06  1.000E-06  1.000E-06  1.000E-06  1.000E-06  1.000E-06  1.000E-06  1.000E-06
       1.000E-06  1.000E-06  1.000E-06  1.000E-06  1.000E-06  1.000E-06  1.000E-06  1.000E-06  1.000E-06  1.000E-06  1.000E-06
       1.000E-06  1.000E-06  1.000E-06  1.000E-06  1.000E-06  1.000E-06  1.000E-06  1.000E-06  1.000E-06  1.000E-06  1.000E-06
       1.000E-06  1.000E-06  1.000E-06  1.000E-06  1.000E-06  1.000E-06  1.000E-06  1.000E-06  1.000E-06  1.000E-06  1.000E-06
       1.000E-06  1.000E-06  1.000E-06  1.000E-06  1.000E-06  1.000E-06  1.000E-06  1.000E-06  1.000E-06  1.000E-06  1.000E-06
       1.000E-06  1.000E-06  1.000E-06  1.000E-06  1.000E-06  1.000E-06  1.000E-06  1.000E-06  1.000E-06  1.000E-06  1.000E-06
       1.000E-06  1.000E-06  1.000E-06  1.000E-06  1.000E-06  1.000E-06  1.000E-06  1.000E-06  1.000E-06  1.000E-06  1.000E-06
       1.000E-06  1.000E-06  1.000E-06  1.000E-06  1.000E-06  1.000E-06  1.000E-06  1.000E-06  1.000E-06  1.000E-06  1.000E-06
       1.000E-06  1.000E-06  1.000E-06  1.000E-06  1.000E-06  1.000E-06  1.000E-06  1.000E-06  1.000E-06  1.000E-06  1.000E-06
       1.000E-06  1.000E-06  1.000E-06  1.000E-06  1.000E-06  1.000E-06  1.000E-06  1.000E-06  1.000E-06  1.000E-06  1.000E-06
       1.000E-06  1.000E-06  1.000E-06  1.000E-06  1.000E-06  1.000E-06  1.000E-06  1.000E-06  1.000E-06  1.000E-06  1.000E-06
       1.000E-06  1.000E-06  1.000E-06  1.000E-06  1.000E-06  1.000E-06  1.000E-06  1.000E-06  1.000E-06  1.000E-06  1.000E-06
       1.000E-06  1.000E-06  1.000E-06  1.000E-06  1.000E-06  1.000E-06  1.000E-06  1.000E-06  1.000E-06  1.000E-06  1.000E-06
       1.000E-06  1.000E-06  1.000E-06  1.000E-06  1.000E-06  1.000E-06  1.000E-06  1.000E-06  1.000E-06  1.000E-06  1.000E-06
       1.000E-06  1.000E-06  1.000E-06  1.000E-06  1.000E-06  1.000E-06  1.000E-06  1.000E-06  1.000E-06  1.000E-06  1.000E-06
       1.000E-06  1.000E-06  1.000E-06  1.000E-06  1.000E-06  1.000E-06  1.000E-06  1.000E-06  1.000E-06  1.000E-06  1.000E-06
       1.000E-06  1.000E-06  1.000E-06  1.000E-06  1.000E-06  1.000E-06  1.000E-06  1.000E-06  1.000E-06  1.000E-06  1.000E-06
       1.000E-06  1.000E-06  1.000E-06  1.000E-06  1.000E-06  1.000E-06  1.000E-06  1.000E-06  1.000E-06  1.000E-06  1.000E-06
       1.000E-06  1.000E-06  1.000E-06  1.000E-06  1.000E-06  1.000E-06  1.000E-06  1.000E-06  1.000E-06  1.000E-06  1.000E-06
       1.000E-06  1.000E-06  1.000E-06  1.000E-06  1.000E-06  1.000E-06  1.000E-06  1.000E-06  1.000E-06  1.000E-06  1.000E-06
       1.000E-06  1.000E-06  1.000E-06  1.000E-06  1.000E-06  1.000E-06  1.000E-06  1.000E-06  1.000E-06  1.000E-06  1.000E-06
       1.000E-06  1.000E-06  1.000E-06  1.000E-06  1.000E-06  1.000E-06  1.000E-06  1.000E-06  1.000E-06  1.000E-06  1.000E-06
       1.000E-06  1.000E-06  1.000E-06  1.000E-06  1.000E-06  1.000E-06  1.000E-06  1.000E-06  1.000E-06  1.000E-06  1.000E-06
       1.000E-06  1.000E-06  1.000E-06  1.000E-06  1.000E-06  1.000E-06  1.000E-06  1.000E-06  1.000E-06  1.000E-06  1.000E-06
       1.000E-06  1.000E-06  1.000E-06  1.000E-06  1.000E-06  1.000E-06  1.000E-06  1.000E-06  1.000E-06  1.000E-06  1.000E-06
       1.000E-06  1.000E-06  1.000E-06  1.000E-06  1.000E-06  1.000E-06  1.000E-06  1.000E-06  1.000E-06  1.000E-06  1.000E-06
       1.000E-06  1.000E-06  1.000E-06  1.000E-06  1.000E-06  1.000E-06  1.000E-06  1.000E-06  1.000E-06  1.000E-06  1.000E-06
       1.000E-06  1.000E-06  1.000E-06  1.000E-06  1.000E-06  1.000E-06  1.000E-06  1.000E-06  1.000E-06  1.000E-06  1.000E-06
       1.000E-06  1.000E-06  1.000E-06  1.000E-06  1.000E-06  1.000E-06  1.000E-06  1.000E-06  1.000E-06  1.000E-06  1.000E-06
       1.000E-06  1.000E-06  1.000E-06  1.000E-06  1.000E-06  1.000E-06  1.000E-06  1.000E-06  1.000E-06  1.000E-06  1.000E-06
       1.000E-06  1.000E-06  1.000E-06  1.000E-06  1.000E-06  1.000E-06  1.000E-06  1.000E-06  1.000E-06  1.000E-06  1.000E-06
       1.000E-06  1.000E-06  1.000E-06  1.000E-06  1.000E-06  1.000E-06  1.000E-06  1.000E-06  1.000E-06  1.000E-06  1.000E-06
       1.000E-06  1.000E-06  1.000E-06  1.000E-06  1.000E-06  1.000E-06  1.000E-06  1.000E-06  1.000E-06  1.000E-06  1.000E-06
       1.000E-06  1.000E-06  1.000E-06  1.000E-06  1.000E-06  1.000E-06  1.000E-06  1.000E-06  1.000E-06  1.000E-06  1.000E-06
       1.000E-06  1.000E-06  1.000E-06  1.000E-06  1.000E-06  1.000E-06  1.000E-06  1.000E-06  1.000E-06  1.000E-06  1.000E-06
       1.000E-06  1.000E-06  1.000E-06  1.000E-06  1.000E-06  1.000E-06  1.000E-06  1.000E-06  1.000E-06  1.000E-06  1.000E-06
       1.000E-06  1.000E-06  1.000E-06  1.000E-06  1.000E-06  1.000E-06  1.000E-06  1.000E-06  1.000E-06  1.000E-06  1.000E-06
       1.000E-06  1.000E-06  1.000E-06  1.000E-06  1.000E-06  1.000E-06  1.000E-06  1.000E-06  1.000E-06  1.000E-06  1.000E-06
       1.000E-06  1.000E-06  1.000E-06  1.000E-06  1.000E-06  1.000E-06  1.000E-06  1.000E-06  1.000E-06  1.000E-06  1.000E-06
       1.000E-06  1.000E-06  1.000E-06  1.000E-06  1.000E-06  1.000E-06  1.000E-06  1.000E-06  1.000E-06  1.000E-06  1.000E-06
       1.000E-06  1.000E-06  1.000E-06  1.000E-06  1.000E-06  1.000E-06  1.000E-06  1.000E-06  1.000E-06  1.000E-06  1.000E-06
       1.000E-06  1.000E-06  1.000E-06  1.000E-06  1.000E-06  1.000E-06  1.000E-06  1.000E-06  1.000E-06  1.000E-06  1.000E-06
       1.000E-06  1.000E-06  1.000E-06  1.000E-06  1.000E-06  1.000E-06  1.000E-06  1.000E-06  1.000E-06  1.000E-06  1.000E-06
       1.000E-06  1.000E-06  1.000E-06  1.000E-06  1.000E-06  1.000E-06  1.000E-06  1.000E-06  1.000E-06  1.000E-06  1.000E-06
       1.000E-06  1.000E-06  1.000E-06  1.000E-06  1.000E-06  1.000E-06  1.000E-06  1.000E-06  1.000E-06  1.000E-06  1.000E-06
       1.000E-06  1.000E-06  1.000E-06  1.000E-06  1.000E-06  1.000E-06  1.000E-06  1.000E-06  1.000E-06  1.000E-06  1.000E-06
       1.000E-06  1.000E-06  1.000E-06  1.000E-06  1.000E-06  1.000E-06  1.000E-06  1.000E-06  1.000E-06  1.000E-06  1.000E-06
       1.000E-06  1.000E-06  1.000E-06  1.000E-06  1.000E-06  1.000E-06  1.000E-06  1.000E-06  1.000E-06  1.000E-06  1.000E-06
       1.000E-06  1.000E-06  1.000E-06  1.000E-06  1.000E-06  1.000E-06  1.000E-06  1.000E-06  1.000E-06  1.000E-06  1.000E-06
       1.000E-06  1.000E-06  1.000E-06  1.000E-06  1.000E-06  1.000E-06  1.000E-06  1.000E-06  1.000E-06  1.000E-06  1.000E-06
       1.000E-06  1.000E-06  1.000E-06  1.000E-06  1.000E-06  1.000E-06  1.000E-06  1.000E-06  1.000E-06  1.000E-06  1.000E-06
       1.000E-06  1.000E-06  1.000E-06  1.000E-06  1.000E-06  1.000E-06  1.000E-06  1.000E-06  1.000E-06  1.000E-06  1.000E-06
       1.000E-06  1.000E-06  1.000E-06  1.000E-06  1.000E-06  1.000E-06  1.000E-06  1.000E-06  1.000E-06  1.000E-06  1.000E-06
       1.000E-06  1.000E-06  1.000E-06  1.000E-06  1.000E-06  1.000E-06  1.000E-06  1.000E-06  1.000E-06  1.000E-06  1.000E-06
       1.000E-06  1.000E-06  1.000E-06  1.000E-06  1.000E-06  1.000E-06  1.000E-06  1.000E-06  1.000E-06  1.000E-06  1.000E-06
       1.000E-06  1.000E-06  1.000E-06  1.000E-06  1.000E-06  1.000E-06  1.000E-06  1.000E-06  1.000E-06  1.000E-06  1.000E-06
       1.000E-06  1.000E-06  1.000E-06  1.000E-06  1.000E-06  1.000E-06  1.000E-06  1.000E-06  1.000E-06  1.000E-06  1.000E-06
       1.000E-06  1.000E-06  1.000E-06  1.000E-06  1.000E-06  1.000E-06  1.000E-06  1.000E-06  1.000E-06  1.000E-06  1.000E-06
       1.000E-06  1.000E-06  1.000E-06  1.000E-06  1.000E-06  1.000E-06  1.000E-06  1.000E-06  1.000E-06  1.000E-06  1.000E-06
       1.000E-06  1.000E-06  1.000E-06  1.000E-06  1.000E-06  1.000E-06  1.000E-06  1.000E-06  1.000E-06  1.000E-06  1.000E-06
       1.000E-06  1.000E-06  1.000E-06  1.000E-06  1.000E-06  1.000E-06  1.000E-06  1.000E-06  1.000E-06  1.000E-06  1.000E-06
       1.000E-06  1.000E-06  1.000E-06  1.000E-06  1.000E-06  1.000E-06  1.000E-06  1.000E-06  1.000E-06  1.000E-06  1.000E-06
       1.000E-06  1.000E-06  1.000E-06  1.000E-06  1.000E-06  1.000E-06  1.000E-06  1.000E-06  1.000E-06  1.000E-06  1.000E-06
       1.000E-06  1.000E-06  1.000E-06  1.000E-06  1.000E-06  1.000E-06  1.000E-06  1.000E-06  1.000E-06  1.000E-06  1.000E-06
       1.000E-06  1.000E-06  1.000E-06  1.000E-06  1.000E-06  1.000E-06  1.000E-06  1.000E-06  1.000E-06  1.000E-06  1.000E-06
       1.000E-06  1.000E-06  1.000E-06  1.000E-06  1.000E-06  1.000E-06  1.000E-06  1.000E-06  1.000E-06  1.000E-06  1.000E-06
       1.000E-06  1.000E-06  1.000E-06  1.000E-06  1.000E-06  1.000E-06  1.000E-06  1.000E-06  1.000E-06  1.000E-06  1.000E-06
       1.000E-06  1.000E-06  1.000E-06  1.000E-06  1.000E-06  1.000E-06  1.000E-06  1.000E-06  1.000E-06  1.000E-06  1.000E-06
       1.000E-06  1.000E-06  1.000E-06  1.000E-06  1.000E-06  1.000E-06  1.000E-06  1.000E-06  1.000E-06  1.000E-06  1.000E-06
       1.000E-06  1.000E-06  1.000E-06  1.000E-06  1.000E-06  1.000E-06  1.000E-06  1.000E-06  1.000E-06  1.000E-06  1.000E-06
       1.000E-06  1.000E-06  1.000E-06  1.000E-06  1.000E-06  1.000E-06  1.000E-06  1.000E-06  1.000E-06  1.000E-06  1.000E-06
       1.000E-06  1.000E-06  1.000E-06  1.000E-06  1.000E-06  1.000E-06  1.000E-06  1.000E-06  1.000E-06  1.000E-06  1.000E-06
       1.000E-06  1.000E-06  1.000E-06  1.000E-06  1.000E-06  1.000E-06  1.000E-06  1.000E-06  1.000E-06  1.000E-06  1.000E-06
       1.000E-06  1.000E-06  1.000E-06  1.000E-06  1.000E-06  1.000E-06  1.000E-06  1.000E-06  1.000E-06  1.000E-06  1.000E-06
       1.000E-06  1.000E-06  1.000E-06  1.000E-06  1.000E-06  1.000E-06  1.000E-06  1.000E-06  1.000E-06  1.000E-06  1.000E-06
       1.000E-06  1.000E-06  1.000E-06  1.000E-06  1.000E-06  1.000E-06  1.000E-06  1.000E-06  1.000E-06  1.000E-06  1.000E-06
       1.000E-06  1.000E-06  1.000E-06  1.000E-06  1.000E-06  1.000E-06  1.000E-06  1.000E-06  1.000E-06  1.000E-06  1.000E-06
       1.000E-06  1.000E-06  1.000E-06  1.000E-06  1.000E-06  1.000E-06  1.000E-06  1.000E-06  1.000E-06  1.000E-06  1.000E-06
       1.000E-06  1.000E-06  1.000E-06  1.000E-06  1.000E-06  1.000E-06  1.000E-06  1.000E-06  1.000E-06  1.000E-06  1.000E-06
       1.000E-06  1.000E-06  1.000E-06  1.000E-06  1.000E-06  1.000E-06  1.000E-06  1.000E-06  1.000E-06  1.000E-06  1.000E-06
       1.000E-06  1.000E-06  1.000E-06  1.000E-06  1.000E-06  1.000E-06  1.000E-06  1.000E-06  1.000E-06  1.000E-06  1.000E-06
       1.000E-06  1.000E-06  1.000E-06  1.000E-06  1.000E-06  1.000E-06  1.000E-06  1.000E-06  1.000E-06  1.000E-06  1.000E-06
       1.000E-06  1.000E-06  1.000E-06  1.000E-06  1.000E-06  1.000E-06  1.000E-06  1.000E-06  1.000E-06  1.000E-06  1.000E-06
       1.000E-06  1.000E-06  1.000E-06  1.000E-06  1.000E-06  1.000E-06  1.000E-06  1.000E-06  1.000E-06  1.000E-06  1.000E-06
       1.000E-06  1.000E-06  1.000E-06  1.000E-06  1.000E-06  1.000E-06  1.000E-06  1.000E-06  1.000E-06  1.000E-06  1.000E-06
       1.000E-06  1.000E-06  1.000E-06  1.000E-06  1.000E-06  1.000E-06  1.000E-06  1.000E-06  1.000E-06  1.000E-06  1.000E-06
       1.000E-06  1.000E-06  1.000E-06  1.000E-06  1.000E-06  1.000E-06  1.000E-06  1.000E-06  1.000E-06  1.000E-06  1.000E-06
       1.000E-06  1.000E-06  1.000E-06  1.000E-06  1.000E-06  1.000E-06  1.000E-06  1.000E-06  1.000E-06  1.000E-06  1.000E-06
       1.000E-06  1.000E-06  1.000E-06  1.000E-06  1.000E-06  1.000E-06  1.000E-06  1.000E-06  1.000E-06  1.000E-06  1.000E-06
       1.000E-06  1.000E-06  1.000E-06  1.000E-06  1.000E-06  1.000E-06  1.000E-06  1.000E-06  1.000E-06  1.000E-06  1.000E-06
       1.000E-06  1.000E-06  1.000E-06  1.000E-06  1.000E-06  1.000E-06  1.000E-06  1.000E-06  1.000E-06  1.000E-06  1.000E-06
       1.000E-06  1.000E-06  1.000E-06  1.000E-06  1.000E-06  1.000E-06  1.000E-06  1.000E-06  1.000E-06  1.000E-06  1.000E-06
       1.000E-06  1.000E-06  1.000E-06  1.000E-06  1.000E-06  1.000E-06  1.000E-06  1.000E-06  1.000E-06  1.000E-06  1.000E-06
       1.000E-06  1.000E-06  1.000E-06  1.000E-06  1.000E-06  1.000E-06  1.000E-06  1.000E-06  1.000E-06  1.000E-06  1.000E-06
       1.000E-06  1.000E-06  1.000E-06  1.000E-06  1.000E-06  1.000E-06  1.000E-06  1.000E-06  1.000E-06  1.000E-06  1.000E-06
       1.000E-06  1.000E-06  1.000E-06  1.000E-06  1.000E-06  1.000E-06  1.000E-06  1.000E-06  1.000E-06  1.000E-06  1.000E-06
       1.000E-06  1.000E-06  1.000E-06  1.000E-06  1.000E-06  1.000E-06  1.000E-06  1.000E-06  1.000E-06  1.000E-06  1.000E-06
       1.000E-06  1.000E-06  1.000E-06  1.000E-06  1.000E-06  1.000E-06  1.000E-06  1.000E-06  1.000E-06  1.000E-06  1.000E-06
       1.000E-06  1.000E-06  1.000E-06  1.000E-06  1.000E-06  1.000E-06  1.000E-06  1.000E-06  1.000E-06  1.000E-06  1.000E-06
       1.000E-06  1.000E-06  1.000E-06  1.000E-06  1.000E-06  1.000E-06  1.000E-06  1.000E-06  1.000E-06  1.000E-06  1.000E-06
       1.000E-06  1.000E-06  1.000E-06  1.000E-06  1.000E-06  1.000E-06  1.000E-06  1.000E-06  1.000E-06  1.000E-06  1.000E-06
       1.000E-06  1.000E-06  1.000E-06  1.000E-06  1.000E-06  1.000E-06  1.000E-06  1.000E-06  1.000E-06  1.000E-06  1.000E-06
       1.000E-06  1.000E-06  1.000E-06  1.000E-06  1.000E-06  1.000E-06  1.000E-06  1.000E-06  1.000E-06  1.000E-06  1.000E-06
       1.000E-06  1.000E-06  1.000E-06  1.000E-06  1.000E-06  1.000E-06  1.000E-06  1.000E-06  1.000E-06  1.000E-06  1.000E-06
       1.000E-06  1.000E-06  1.000E-06  1.000E-06  1.000E-06  1.000E-06  1.000E-06  1.000E-06  1.000E-06  1.000E-06  1.000E-06
       1.000E-06  1.000E-06  1.000E-06  1.000E-06  1.000E-06  1.000E-06  1.000E-06  1.000E-06  1.000E-06  1.000E-06  1.000E-06
[...]
    180     (1,1431)              3156.3      -3132.2      -24.106       0.0000       0.0000       0.0000       0.0000       0.0000       0.0000       0.0000       0.0000     
    181     (1,1429)              3132.2      -3097.8      -34.400       0.0000       0.0000       0.0000       0.0000       0.0000       0.0000       0.0000       0.0000     
    182     (1,1432)              3097.8      -3102.2       4.3922       0.0000       0.0000       0.0000       0.0000       0.0000       0.0000       0.0000       0.0000     
    183     (1,1353)              3102.2      -3099.3      -2.9071       0.0000       0.0000       0.0000       0.0000       0.0000       0.0000       0.0000       0.0000     
    184     (1,1351)              3099.3      -3087.0      -12.260       0.0000       0.0000       0.0000       0.0000       0.0000       0.0000       0.0000       0.0000     
    185     (1,1274)              3087.0      -3052.9      -34.186       0.0000       0.0000       0.0000       0.0000       0.0000       0.0000       0.0000       0.0000     
    186     (1,1272)              3052.9      -2990.3      -62.553       0.0000       0.0000       0.0000       0.0000       0.0000       0.0000       0.0000       0.0000     
    187     (1,1194)              2990.3      -3082.2       91.860       0.0000       0.0000       0.0000       0.0000       0.0000       0.0000       0.0000       0.0000     
    188     (1,1192)              3082.2      -3199.5       117.37       0.0000       0.0000       0.0000       0.0000       0.0000       0.0000       0.0000       0.0000     
    189     (1,1189)              3199.5      -3214.1       14.530       0.0000       0.0000       0.0000       0.0000       0.0000       0.0000       0.0000       0.0000     
    190     (1,1111)              3214.1      -3340.0       125.88       0.0000       0.0000       0.0000       0.0000       0.0000       0.0000       0.0000       0.0000     
    191     (1,1109)              3340.0      -3420.9       80.955       0.0000       0.0000       0.0000       0.0000       0.0000       0.0000       0.0000       0.0000     
    192     (1,1108)              3420.9      -3460.0       39.113       0.0000       0.0000       0.0000       0.0000       0.0000       0.0000       0.0000       0.0000     
    193     (1,1030)              3460.0      -3536.4       76.418       0.0000       0.0000       0.0000       0.0000       0.0000       0.0000       0.0000       0.0000     
    194     (1,1028)              3536.4      -3610.9       74.475       0.0000       0.0000       0.0000       0.0000       0.0000       0.0000       0.0000       0.0000     
    195     (1,950)               3610.9      -3631.8       20.916       0.0000       0.0000       0.0000       0.0000       0.0000       0.0000       0.0000       0.0000     
    196     (1,947)               3631.8      -3726.8       94.994       0.0000       0.0000       0.0000       0.0000       0.0000       0.0000       0.0000       0.0000     
    197     (1,945)               3726.8      -3799.9       73.073       0.0000       0.0000       0.0000       0.0000       0.0000       0.0000       0.0000       0.0000     
    198     (1,944)               3799.9      -3876.1       76.155       0.0000       0.0000       0.0000       0.0000       0.0000       0.0000       0.0000       0.0000     
    199     (1,866)               3876.1      -3918.7       42.688       0.0000       0.0000       0.0000       0.0000       0.0000       0.0000       0.0000       0.0000     
    200     (1,863)               3918.7      -3979.8       61.075       0.0000       0.0000       0.0000       0.0000       0.0000       0.0000       0.0000       0.0000     
    201     (1,861)               3979.8      -4035.7       55.888       0.0000       0.0000       0.0000       0.0000       0.0000       0.0000       0.0000       0.0000     
    202     (1,860)               4035.7      -4071.1       35.425       0.0000       0.0000       0.0000       0.0000       0.0000       0.0000       0.0000       0.0000     
    203     (1,782)               4071.1      -4129.7       58.577       0.0000       0.0000       0.0000       0.0000       0.0000       0.0000       0.0000       0.0000     
    204     (1,779)               4129.7      -4146.8       17.083       0.0000       0.0000       0.0000       0.0000       0.0000       0.0000       0.0000       0.0000     
    205     (1,777)               4146.8      -4215.9       69.081       0.0000       0.0000       0.0000       0.0000       0.0000       0.0000       0.0000       0.0000     
    206     (1,700)               4215.9      -4217.1       1.1884       0.0000       0.0000       0.0000       0.0000       0.0000       0.0000       0.0000       0.0000     
    207     (1,699)               4217.1      -4268.3       51.277       0.0000       0.0000       0.0000       0.0000       0.0000       0.0000       0.0000       0.0000     
    208     (1,697)               4268.3      -4280.1       11.774       0.0000       0.0000       0.0000       0.0000       0.0000       0.0000       0.0000       0.0000     
    209     (1,694)               4280.1      -4302.8       22.646       0.0000       0.0000       0.0000       0.0000       0.0000       0.0000       0.0000       0.0000     
    210     (1,618)               4302.8      -4343.8       41.010       0.0000       0.0000       0.0000       0.0000       0.0000       0.0000       0.0000       0.0000     
    211     (1,617)               4343.8      -4373.5       29.771       0.0000       0.0000       0.0000       0.0000       0.0000       0.0000       0.0000       0.0000     
    212     (1,615)               4373.5      -4414.8       41.265       0.0000       0.0000       0.0000       0.0000       0.0000       0.0000       0.0000       0.0000     
    213     (1,612)               4414.8      -4424.0       9.1930       0.0000       0.0000       0.0000       0.0000       0.0000       0.0000       0.0000       0.0000     
    214     (1,537)               4424.0      -4430.4       6.3766       0.0000       0.0000       0.0000       0.0000       0.0000       0.0000       0.0000       0.0000     
    215     (1,535)               4430.4      -4513.1       82.727       0.0000       0.0000       0.0000       0.0000       0.0000       0.0000       0.0000       0.0000     
    216     (1,534)               4513.1      -4606.8       93.696       0.0000       0.0000       0.0000       0.0000       0.0000       0.0000       0.0000       0.0000     
    217     (1,531)               4606.8      -4608.4       1.6276       0.0000       0.0000       0.0000       0.0000       0.0000       0.0000       0.0000       0.0000     
    218     (1,457)               4608.4      -4681.4       72.986       0.0000       0.0000       0.0000       0.0000       0.0000       0.0000       0.0000       0.0000     
    219     (1,455)               4681.4      -4751.7       70.308       0.0000       0.0000       0.0000       0.0000       0.0000       0.0000       0.0000       0.0000     
    220     (1,382)               4751.7      -4791.7       39.984       0.0000       0.0000       0.0000       0.0000       0.0000       0.0000       0.0000       0.0000     
    221     (1,381)               4791.7      -4850.5       58.816       0.0000       0.0000       0.0000       0.0000       0.0000       0.0000       0.0000       0.0000     
    222     (1,378)               4850.5      -4892.5       41.984       0.0000       0.0000       0.0000       0.0000       0.0000       0.0000       0.0000       0.0000     
    223     (1,377)               4892.5      -4929.0       36.496       0.0000       0.0000       0.0000       0.0000       0.0000       0.0000       0.0000       0.0000     
    224     (1,375)               4929.0      -4938.8       9.8482       0.0000       0.0000       0.0000       0.0000       0.0000       0.0000       0.0000       0.0000     
    225     (1,372)               4938.8      -4975.4       36.594       0.0000       0.0000       0.0000       0.0000       0.0000       0.0000       0.0000       0.0000     
    226     (1,371)               4975.4      -4985.2       9.8058       0.0000       0.0000       0.0000       0.0000       0.0000       0.0000       0.0000       0.0000     
    227     (1,299)               4985.2      -5008.9       23.630       0.0000       0.0000       0.0000       0.0000       0.0000       0.0000       0.0000       0.0000     
    228     (1,296)               5008.9      -5024.9       15.998       0.0000       0.0000       0.0000       0.0000       0.0000       0.0000       0.0000       0.0000     
    229     (1,294)               5024.9      -5028.3       3.4765       0.0000       0.0000       0.0000       0.0000       0.0000       0.0000       0.0000       0.0000     
    230     (1,293)               5028.3      -5039.6       11.303       0.0000       0.0000       0.0000       0.0000       0.0000       0.0000       0.0000       0.0000     
    231     (1,290)               5039.6      -5037.0      -2.6099       0.0000       0.0000       0.0000       0.0000       0.0000       0.0000       0.0000       0.0000     
    232     (1,289)               5037.0      -5023.9      -13.146       0.0000       0.0000       0.0000       0.0000       0.0000       0.0000       0.0000       0.0000     
    233     (1,286)               5023.9      -5019.0      -4.9022       0.0000       0.0000       0.0000       0.0000       0.0000       0.0000       0.0000       0.0000     
    234     (1,250)               5019.0      -4986.3      -32.719       0.0000       0.0000       0.0000       0.0000       0.0000       0.0000       0.0000       0.0000     
    235     (1,249)               4986.3      -4912.6      -73.668       0.0000       0.0000       0.0000       0.0000       0.0000       0.0000       0.0000       0.0000     
    236     (1,246)               4912.6      -4928.6       16.026       0.0000       0.0000       0.0000       0.0000       0.0000       0.0000       0.0000       0.0000     
    237     (1,244)               4928.6      -4968.7       40.071       0.0000       0.0000       0.0000       0.0000       0.0000       0.0000       0.0000       0.0000     
    238     (1,243)               4968.7      -5112.4       143.72       0.0000       0.0000       0.0000       0.0000       0.0000       0.0000       0.0000       0.0000     
    239     (1,209)               5112.4      -5183.9       71.465       0.0000       0.0000       0.0000       0.0000       0.0000       0.0000       0.0000       0.0000     
    240     (1,206)               5183.9      -5285.1       101.21       0.0000       0.0000       0.0000       0.0000       0.0000       0.0000       0.0000       0.0000     
    241     (1,204)               5285.1      -5340.5       55.374       0.0000       0.0000       0.0000       0.0000       0.0000       0.0000       0.0000       0.0000     
    242     (1,203)               5340.5      -5425.2       84.721       0.0000       0.0000       0.0000       0.0000       0.0000       0.0000       0.0000       0.0000     
    243     (1,171)               5425.2      -5474.3       49.071       0.0000       0.0000       0.0000       0.0000       0.0000       0.0000       0.0000       0.0000     
    244     (1,168)               5474.3      -5562.7       88.482       0.0000       0.0000       0.0000       0.0000       0.0000       0.0000       0.0000       0.0000     
    245     (1,166)               5562.7      -5570.2       7.4133       0.0000       0.0000       0.0000       0.0000       0.0000       0.0000       0.0000       0.0000     
    246     (1,165)               5570.2      -5663.0       92.872       0.0000       0.0000       0.0000       0.0000       0.0000       0.0000       0.0000       0.0000     
    247     (1,135)               5663.0      -5670.3       7.3015       0.0000       0.0000       0.0000       0.0000       0.0000       0.0000       0.0000       0.0000     
    248     (1,132)               5670.3      -5756.4       86.090       0.0000       0.0000       0.0000       0.0000       0.0000       0.0000       0.0000       0.0000     
    249     (1,130)               5756.4      -5763.2       6.8045       0.0000       0.0000       0.0000       0.0000       0.0000       0.0000       0.0000       0.0000     
    250     (1,129)               5763.2      -5845.1       81.893       0.0000       0.0000       0.0000       0.0000       0.0000       0.0000       0.0000       0.0000     
    251     (1,101)               5845.1      -5851.8       6.7111       0.0000       0.0000       0.0000       0.0000       0.0000       0.0000       0.0000       0.0000     
    252     (1,98)                5851.8      -5930.4       78.556       0.0000       0.0000       0.0000       0.0000       0.0000       0.0000       0.0000       0.0000     
    253     (1,96)                5930.4      -5936.8       6.3698       0.0000       0.0000       0.0000       0.0000       0.0000       0.0000       0.0000       0.0000     
    254     (1,95)                5936.8      -6012.3       75.534       0.0000       0.0000       0.0000       0.0000       0.0000       0.0000       0.0000       0.0000     
    255     (1,69)                6012.3      -6018.7       6.3773       0.0000       0.0000       0.0000       0.0000       0.0000       0.0000       0.0000       0.0000     
    256     (1,66)                6018.7      -6090.7       72.022       0.0000       0.0000       0.0000       0.0000       0.0000       0.0000       0.0000       0.0000     
    257     (1,65)                6090.7      -6094.4       3.7236       0.0000       0.0000       0.0000       0.0000       0.0000       0.0000       0.0000       0.0000     
    258     (1,63)                6094.4      -6162.3       67.843       0.0000       0.0000       0.0000       0.0000       0.0000       0.0000       0.0000       0.0000     
    259     (1,60)                6162.3      -6179.8       17.584       0.0000       0.0000       0.0000       0.0000       0.0000       0.0000       0.0000       0.0000     
    260     (1,36)                6179.8      -6300.9       121.07       0.0000       0.0000       0.0000       0.0000       0.0000       0.0000       0.0000       0.0000     
    261     (1,35)                6300.9      -6352.5       51.630       0.0000       0.0000       0.0000       0.0000       0.0000       0.0000       0.0000       0.0000     
    262     (1,33)                6352.5      -6450.8       98.300       0.0000       0.0000       0.0000       0.0000       0.0000       0.0000       0.0000       0.0000     
    263     (1,30)                6450.8      -6544.6       93.761       0.0000       0.0000       0.0000       0.0000       0.0000       0.0000       0.0000       0.0000     
    264     (1,8)                 6544.6      -6655.1       110.45       0.0000       0.0000       0.0000       0.0000       0.0000       0.0000       0.0000       0.0000     
    265     (1,7)                 6655.1      -6786.3       131.27       0.0000       0.0000       0.0000       0.0000       0.0000       0.0000       0.0000       0.0000     
    266     (1,5)                 6786.3       0.0000       22.768       0.0000       0.0000       0.0000       0.0000      -6809.1       0.0000       0.0000       0.0000     
 ------------------------------------------------------------------------------------------------------------------------------------------------------------------------------




  SFR BUDGET FOR ENTIRE MODEL AT END OF TIME STEP   48, STRESS PERIOD   2
  ------------------------------------------------------------------------------

     CUMULATIVE SFR      L**3       RATES FOR THIS TIME STEP      L**3/T
     ------------------                 ------------------------

           IN:                                      IN:
           ---                                      ---
                 GWF =    10650098.2441                   GWF =        7289.5947
            RAINFALL =           0.0000              RAINFALL =           0.0000
         EVAPORATION =           0.0000           EVAPORATION =           0.0000
              RUNOFF =           0.0000                RUNOFF =           0.0000
          EXT-INFLOW =           0.0000            EXT-INFLOW =           0.0000
         EXT-OUTFLOW =           0.0000           EXT-OUTFLOW =           0.0000
             STORAGE =           0.0000               STORAGE =           0.0000

            TOTAL IN =    10650098.2441              TOTAL IN =        7289.5947

          OUT:                                     OUT:
          ----                                     ----
                 GWF =      702024.7201                   GWF =         480.5098
            RAINFALL =           0.0000              RAINFALL =           0.0000
         EVAPORATION =           0.0000           EVAPORATION =           0.0000
              RUNOFF =           0.0000                RUNOFF =           0.0000
          EXT-INFLOW =           0.0000            EXT-INFLOW =           0.0000
         EXT-OUTFLOW =     9948073.5240           EXT-OUTFLOW =        6809.0849
             STORAGE =           0.0000               STORAGE =           0.0000

           TOTAL OUT =    10650098.2441             TOTAL OUT =        7289.5947

            IN - OUT =           0.0000              IN - OUT =       1.8190E-12

 PERCENT DISCREPANCY =           0.00     PERCENT DISCREPANCY =          -0.00



  VOLUME BUDGET FOR ENTIRE MODEL AT END OF TIME STEP   48, STRESS PERIOD   2
  ---------------------------------------------------------------------------------------------------

     CUMULATIVE VOLUME      L**3       RATES FOR THIS TIME STEP      L**3/T          PACKAGE NAME    
     ------------------                 ------------------------                     ----------------

           IN:                                      IN:
           ---                                      ---
              STO-SS =       1.3600E-04                STO-SS =       1.2748E-12     STORAGE         
              STO-SY =           0.1830                STO-SY =       1.7210E-09     STORAGE         
                 GHB =    13281520.2149                   GHB =        9090.7052     GHB             
                 RCH =      204740.0563                   RCH =         140.1369     RCH             
                 SFR =      702024.7531                   SFR =         480.5098     SFR             

            TOTAL IN =    14188285.2074              TOTAL IN =        9711.3519

          OUT:                                     OUT:
          ----                                     ----
              STO-SS =       3.0062E-08                STO-SS =           0.0000     STORAGE         
              STO-SY =       3.5624E-05                STO-SY =           0.0000     STORAGE         
                 GHB =     3538187.5454                   GHB =        2421.7572     GHB             
                 RCH =           0.0000                   RCH =           0.0000     RCH             
                 SFR =    10650098.0870                   SFR =        7289.5947     SFR             

           TOTAL OUT =    14188285.6325             TOTAL OUT =        9711.3519

            IN - OUT =           0.4251              IN - OUT =       8.6070E-07

 PERCENT DISCREPANCY =          -0.00     PERCENT DISCREPANCY =          -0.00




         TIME SUMMARY AT END OF TIME STEP   48 IN STRESS PERIOD    2
                    SECONDS     MINUTES      HOURS       DAYS        YEARS
                    -----------------------------------------------------------
   TIME STEP LENGTH 2.62800E+06  43800.      730.00      30.417     8.32763E-02
 STRESS PERIOD TIME 1.26144E+08 2.10240E+06  35040.      1460.0      3.9973    
         TOTAL TIME 1.26230E+08 2.10384E+06  35064.      1461.0      4.0000    


end timestep

