                                   MODFLOW 6
                U.S. GEOLOGICAL SURVEY MODULAR HYDROLOGIC MODEL
                            VERSION 6.2.1 02/18/2021

   MODFLOW 6 compiled Feb 18 2021 21:14:51 with IFORT compiler (ver. 19.10.3)

This software has been approved for release by the U.S. Geological 
Survey (USGS). Although the software has been subjected to rigorous 
review, the USGS reserves the right to update the software as needed 
pursuant to further analysis and review. No warranty, expressed or 
implied, is made by the USGS or the U.S. Government as to the 
functionality of the software and related material nor shall the 
fact of release constitute any such warranty. Furthermore, the 
software is released on condition that neither the USGS nor the U.S. 
Government shall be held liable for any damages resulting from its 
authorized or unauthorized use. Also refer to the USGS Water 
Resources Software User Rights Notice for complete use, copyright, 
and distribution information.


System command used to initiate simulation:
..\bins\win\mf6

MODFLOW was compiled using uniform precision.

Real Variables
  KIND: 8
  TINY (smallest non-zero value):    2.225074-308
  HUGE (largest value):    1.797693+308
  PRECISION: 15
  BIT SIZE: 64

Integer Variables
  KIND: 4
  HUGE (largest value): 2147483647
  BIT SIZE: 32

Long Integer Variables
  KIND: 8
  HUGE (largest value): 9223372036854775807
  BIT SIZE: 64

Logical Variables
  KIND: 4
  BIT SIZE: 32
 

 OPENED mfsim.nam
 FILE TYPE:NAM   UNIT 1001   STATUS:OLD                 
 FORMAT:FORMATTED              ACCESS:SEQUENTIAL          
 ACTION:READ                

 # File generated by Flopy version 3.3.5 on 11/09/2021 at 14:51:25.

 READING SIMULATION OPTIONS
 END OF SIMULATION OPTIONS

 READING SIMULATION TIMING

 OPENED experimental.tdis
 FILE TYPE:TDIS   UNIT 1002   STATUS:OLD                 
 FORMAT:FORMATTED              ACCESS:SEQUENTIAL          
 ACTION:READ                


 TDIS -- TEMPORAL DISCRETIZATION PACKAGE,
 VERSION 1 : 11/13/2014 - INPUT READ FROM UNIT 1002
 # File generated by Flopy version 3.3.5 on 11/09/2021 at 14:51:25.
 PROCESSING TDIS OPTIONS
    SIMULATION TIME UNIT IS DAYS
 END OF TDIS OPTIONS
 PROCESSING TDIS DIMENSIONS
    2 STRESS PERIOD(S) IN SIMULATION
 END OF TDIS DIMENSIONS
 PROCESSING TDIS PERIODDATA


 STRESS PERIOD     LENGTH       TIME STEPS     MULTIPLIER FOR DELT
 ----------------------------------------------------------------------------
        1         1.000000          1                    1.000
        2         1460.000         48                    1.000
 END OF TDIS PERIODDATA
 END OF SIMULATION TIMING

 READING SIMULATION MODELS
    GWF6 model EXPERIMENTAL will be created as model 1
 END OF SIMULATION MODELS

 READING SIMULATION EXCHANGES
 END OF SIMULATION EXCHANGES

 READING SOLUTIONGROUP

 Creating solution: SLN_1           

 OPENED experimental.ims
 FILE TYPE:IMS   UNIT 1014   STATUS:OLD                 
 FORMAT:FORMATTED              ACCESS:SEQUENTIAL          
 ACTION:READ                

 END OF SIMULATION SOLUTIONGROUP

 IMS -- ITERATIVE MODEL SOLUTION PACKAGE, VERSION 6, 4/28/2017
         INPUT READ FROM UNIT 1014
 # File generated by Flopy version 3.3.5 on 11/09/2021 at 14:51:25.

 PROCESSING IMS OPTIONS
 SIMPLE OPTION:
 DEFAULT SOLVER INPUT VALUES FOR FAST SOLUTIONS
 END OF IMS OPTIONS

 PROCESSING IMS NONLINEAR
 END OF IMS NONLINEAR DATA
 ***UNDER-RELAXATION WILL NOT BE USED***
 
 ***IMS LINEAR SOLVER WILL BE USED***

 IMSLINEAR -- UNSTRUCTURED LINEAR SOLUTION PACKAGE, VERSION 8, 04/28/2017

 PROCESSING LINEAR DATA
 END OF LINEAR DATA
 
 OUTER ITERATION CONVERGENCE CRITERION    (DVCLOSE) =    0.100000E-01
 MAXIMUM NUMBER OF OUTER ITERATIONS        (MXITER) = 750
 SOLVER PRINTOUT INDEX                     (IPRIMS) = 1
 NONLINEAR ITERATION METHOD            (NONLINMETH) = 0
 LINEAR SOLUTION METHOD                   (LINMETH) = 1

       SOLUTION BY THE BICONJUGATE-GRADIENT STABILIZED METHOD
 ------------------------------------------------------------------
 MAXIMUM OF 750 CALLS OF SOLUTION ROUTINE
 MAXIMUM OF 50 INTERNAL ITERATIONS PER CALL TO SOLUTION ROUTINE
 LINEAR ACCELERATION METHOD            = BCGS      
 MATRIX PRECONDITIONING TYPE           = INCOMPLETE LU       
 MATRIX SCALING APPROACH               = NO SCALING          
 MATRIX REORDERING APPROACH            = ORIGINAL ORDERING        
 NUMBER OF ORTHOGONALIZATIONS          = 0
 HEAD CHANGE CRITERION FOR CLOSURE     =    0.10000E-02
 RESIDUAL CHANGE CRITERION FOR CLOSURE =    0.10000E+00
 RESIDUAL CONVERGENCE OPTION           = 0
 RESIDUAL CONVERGENCE NORM             = INFINITY NORM   
 RELAXATION FACTOR                     =    0.00000E+00



1
                            STRESS PERIOD NO.    1, LENGTH =   1.000000    
                            -----------------------------------------------

                              NUMBER OF TIME STEPS =     1

                               MULTIPLIER FOR DELT =     1.000

                            INITIAL TIME STEP SIZE =   1.000000    



 PSEUDO-TRANSIENT CONTINUATION WILL BE APPLIED TO MODEL 1 ("EXPERIMENTAL") DURING THIS TIME STEP

 OUTER ITERATION SUMMARY
 ----------------------------------------------------------------------------------------------------------
                                OUTER      INNER                    STEP   MAXIMUM CHANGE MODEL-(CELLID) OR
 OUTER ITERATION STEP       ITERATION  ITERATION  MAXIMUM CHANGE SUCCESS             MODEL-PACKAGE-(NUMBER)
 ----------------------------------------------------------------------------------------------------------
 Model                              1         11       2.6851245                             1_GWF-(1,3708)
 Model                              2         16       2.9023249                              1_GWF-(1,841)
 Model                              3         18       1.9563420                              1_GWF-(1,923)
 Model                              4         19       2.7585748                             1_GWF-(1,1019)
 Model                              5         19     -0.80228334                             1_GWF-(1,1019)
 Model                              6         19     -0.44876611                             1_GWF-(3,2408)
 Model                              7         17      0.14518616                             1_GWF-(3,1735)
 Model                              8         14  3.53682331E-02                             1_GWF-(3,1728)
 Model                              9          3 -4.21725334E-03       *                       1_GWF-(1,36)
 Package                            9                  1152.9297                     1_GWF-SFR-(210)-inflow
 Model                             10          2 -1.20292098E-03       *                       1_GWF-(1,36)
 Package                           10                  253.95395                     1_GWF-SFR-(221)-inflow
 Model                             11          1 -2.97599598E-04       *                       1_GWF-(1,36)
 Package                           11                  53.969182                     1_GWF-SFR-(221)-inflow
 Model                             12          1 -6.03227859E-04       *                       1_GWF-(3,68)
 Package                           12                  10.554165                     1_GWF-SFR-(261)-inflow
 Model                             13          1 -4.52548395E-04       *                       1_GWF-(3,69)
 Package                           13                  9.1807190                     1_GWF-SFR-(261)-inflow
 Model                             14          1 -7.10424260E-04       *                       1_GWF-(3,35)
 Package                           14                  3.9959100                     1_GWF-SFR-(261)-inflow
 Model                             15          1  1.73964109E-04       *                     1_GWF-(1,1870)
 Package                           15                  7.1543494                     1_GWF-SFR-(261)-inflow
 Model                             16          1  8.58248896E-04       *                     1_GWF-(1,1870)
 Package                           16                 -1.5128514                     1_GWF-SFR-(210)-inflow
 Model                             17          1 -9.14921919E-05       *                       1_GWF-(2,15)
 Package                           17                  2.9532783                     1_GWF-SFR-(261)-inflow
 Model                             18          1  6.04584166E-04       *                     1_GWF-(1,1726)
 Package                           18                 -2.9518722                     1_GWF-SFR-(210)-inflow
 Model                             19          1  8.45439488E-05       *                     1_GWF-(1,1729)
 Package                           19                 -4.5401038                     1_GWF-SFR-(210)-inflow
 Model                             20          1  5.23322364E-04       *                     1_GWF-(1,1729)
 Package                           20                 -1.4395574                     1_GWF-SFR-(210)-inflow
 Model                             21          1 -9.32269205E-05       *                      1_GWF-(3,226)
 Package                           21                 -4.9353515                     1_GWF-SFR-(210)-inflow
 Model                             22          1  5.87252483E-04       *                     1_GWF-(1,1870)
 Package                           22                -0.87675841                     1_GWF-SFR-(210)-inflow
 Model                             23          1 -1.06882442E-04       *                      1_GWF-(3,226)
 Package                           23                 -4.8125858                     1_GWF-SFR-(210)-inflow
 Model                             24          1  4.86499188E-04       *                     1_GWF-(1,1726)
 Package                           24                -0.89437569                     1_GWF-SFR-(210)-inflow
 Model                             25          1  5.59066315E-05       *                      1_GWF-(3,188)
 Package                           25                 -5.1188734                     1_GWF-SFR-(210)-inflow
 Model                             26          1  3.48638293E-04       *                     1_GWF-(1,1870)
 Package                           26                -0.64779471                     1_GWF-SFR-(210)-inflow
 Model                             27          1 -6.49269272E-05       *                      1_GWF-(3,226)
 Package                           27                 -3.0028770                     1_GWF-SFR-(210)-inflow
 Model                             28          1 -8.96102318E-05       *                      1_GWF-(3,357)
 Package                           28                -0.64863596                     1_GWF-SFR-(210)-inflow
 Model                             29          1  2.67955048E-05       *                     1_GWF-(1,1730)
 Package                           29                 -1.5958820                     1_GWF-SFR-(210)-inflow
 Model                             30          1  9.87556204E-05       *                     1_GWF-(1,1870)
 Package                           30            -6.47795052E-02                     1_GWF-SFR-(210)-inflow
 Model                             31          1 -1.89073458E-05       *                      1_GWF-(3,226)
 Package                           31                 -1.3610122                     1_GWF-SFR-(210)-inflow
 Model                             32          1  1.17744095E-04       *                     1_GWF-(1,1726)
 Package                           32                -0.12729356                     1_GWF-SFR-(261)-inflow
 Model                             33          1  1.59393226E-05       *                      1_GWF-(3,118)
 Package                           33                 -1.5682825                     1_GWF-SFR-(210)-inflow
 Model                             34          1  1.39199452E-04       *                     1_GWF-(1,1870)
 Package                           34                -0.10405146                     1_GWF-SFR-(221)-inflow
 Model                             35          1 -1.66825012E-05       *                      1_GWF-(3,226)
 Package                           35                 -1.3684533                     1_GWF-SFR-(210)-inflow
 Model                             36          1  3.29893231E-05       *                     1_GWF-(1,1729)
 Package                           36                -0.35737590                     1_GWF-SFR-(210)-inflow
 Model                             37          1  1.27030049E-05       *                     1_GWF-(2,1716)
 Package                           37                -0.54350211                     1_GWF-SFR-(221)-inflow
 Model                             38          1  4.25664709E-05       *                     1_GWF-(1,1870)
 Package                           38                -0.10920669                     1_GWF-SFR-(210)-inflow
 Model                             39          1  7.40418110E-06       *                     1_GWF-(1,1729)
 Package                           39                -0.60507594                     1_GWF-SFR-(210)-inflow
 Model                             40          1  5.32046200E-05       *                     1_GWF-(1,1729)
 Package                           40            -6.02410163E-02                     1_GWF-SFR-(210)-inflow
 Model                             41          1  5.22577804E-06       *                      1_GWF-(3,118)
 Package                           41                -0.72275109                     1_GWF-SFR-(210)-inflow
 Model                             42          1  5.01330539E-05       *                     1_GWF-(1,1869)
 Package                           42            -4.59803925E-02                     1_GWF-SFR-(210)-inflow
 Model                             43          1 -5.21862123E-06       *                      1_GWF-(3,152)
 Package                           43                -0.61983647                     1_GWF-SFR-(210)-inflow
 Model                             44          1  2.31331701E-05       *                     1_GWF-(1,1730)
 Package                           44            -9.75890109E-02                     1_GWF-SFR-(221)-inflow
 Model                             45          1  4.82848321E-06       *                      1_GWF-(3,114)
 Package                           45                -0.29720044                     1_GWF-SFR-(210)-inflow
 Model                             46          1  1.92806203E-05       *                     1_GWF-(2,1721)
 Package                           46            -6.24680794E-02                     1_GWF-SFR-(210)-inflow
 Model                             47          1  2.95711072E-06       *                     1_GWF-(1,1738)
 Package                           47                -0.26915885                     1_GWF-SFR-(210)-inflow
 Model                             48          1  1.67635243E-05       *                     1_GWF-(1,1730)
 Package                           48            -4.40645529E-02                     1_GWF-SFR-(210)-inflow
 Model                             49          1  2.42867344E-06       *                     1_GWF-(2,1709)
 Package                           49                -0.21880296                     1_GWF-SFR-(210)-inflow
 Model                             50          1  1.47560668E-05       *                     1_GWF-(1,1714)
 Package                           50            -3.31488629E-02                     1_GWF-SFR-(210)-inflow
 Model                             51          1  2.05243040E-06       *                     1_GWF-(1,1738)
 Package                           51                -0.19833531                     1_GWF-SFR-(210)-inflow
 Model                             52          1  1.04505980E-05       *                     1_GWF-(1,1730)
 Package                           52            -3.97183131E-02                     1_GWF-SFR-(221)-inflow
 Model                             53          1  1.87400528E-06       *                     1_GWF-(2,1709)
 Package                           53                -0.13954595                     1_GWF-SFR-(210)-inflow
 Model                             54          1  9.63167156E-06       *                     1_GWF-(1,1714)
 Package                           54            -2.20963797E-02                     1_GWF-SFR-(210)-inflow
 Model                             55          1  1.44001527E-06       *                     1_GWF-(1,1738)
 Package                           55                -0.13086251                     1_GWF-SFR-(210)-inflow
 Model                             56          1  8.03476647E-06       *                     1_GWF-(1,1730)
 Package                           56            -2.83219775E-02                     1_GWF-SFR-(210)-inflow
 Model                             57          1  1.22428344E-06       *                     1_GWF-(2,1709)
 Package                           57                -0.10639775                     1_GWF-SFR-(210)-inflow
 Model                             58          1  7.82221829E-06       *                     1_GWF-(1,1709)
 Package                           58            -1.65366604E-02                     1_GWF-SFR-(210)-inflow
 Model                             59          1  1.13717633E-06       *                      1_GWF-(3,266)
 Package                           59                -0.10252197                     1_GWF-SFR-(210)-inflow
 Model                             60          1  4.90687833E-06       *                     1_GWF-(1,1738)
 Package                           60            -2.34645753E-02                     1_GWF-SFR-(221)-inflow
 Model                             61          1  9.99845440E-07       *                      1_GWF-(3,148)
 Package                           61            -6.69120941E-02                     1_GWF-SFR-(210)-inflow
 Model                             62          1  4.72332246E-06       *                     1_GWF-(1,1709)
 Package                           62            -1.01164605E-02                     1_GWF-SFR-(210)-inflow
 Model                             63          1  7.40236686E-07       *                      1_GWF-(3,266)
 Package                           63            -6.39659821E-02                     1_GWF-SFR-(210)-inflow
 Model                             64          1  3.78614578E-06       *                     1_GWF-(1,1730)
 Package                           64            -1.52411000E-02                     1_GWF-SFR-(221)-inflow
 Model                             65          1  6.27249278E-07       *                     1_GWF-(2,1709)
 Package                           65            -5.14194946E-02                     1_GWF-SFR-(210)-inflow
 Model                             66          1  3.85331751E-06       *                     1_GWF-(1,1709)
 Package                           66            -7.97823299E-03       *             1_GWF-SFR-(210)-inflow
 ----------------------------------------------------------------------------------------------------------


 66 CALLS TO NUMERICAL SOLUTION IN TIME STEP 1 STRESS PERIOD 1
 194 TOTAL ITERATIONS
1
                            STRESS PERIOD NO.    2, LENGTH =   1460.000    
                            -----------------------------------------------

                              NUMBER OF TIME STEPS =    48

                               MULTIPLIER FOR DELT =     1.000

                            INITIAL TIME STEP SIZE =   30.41667    

 OUTER ITERATION SUMMARY
 ----------------------------------------------------------------------------------------------------------
                                OUTER      INNER                    STEP   MAXIMUM CHANGE MODEL-(CELLID) OR
 OUTER ITERATION STEP       ITERATION  ITERATION  MAXIMUM CHANGE SUCCESS             MODEL-PACKAGE-(NUMBER)
 ----------------------------------------------------------------------------------------------------------
 Model                              1          1  6.03224265E-07       *                      1_GWF-(3,266)
 Package                            1                 -920845.92                     1_GWF-SFR-(210)-inflow
 Model                              2          1  2.44979287E-06       *                     1_GWF-(1,1738)
 Package                            2                -0.36757772                     1_GWF-SFR-(221)-inflow
 Model                              3          1  4.89005288E-07       *                      1_GWF-(3,148)
 Package                            3                 -1.0442756                     1_GWF-SFR-(210)-inflow
 Model                              4          1  2.41822107E-06       *                     1_GWF-(2,1714)
 Package                            4                -0.14966968                     1_GWF-SFR-(210)-inflow
 Model                              5          1  3.81952191E-07       *                      1_GWF-(3,266)
 Package                            5                -0.96401715                     1_GWF-SFR-(210)-inflow
 Model                              6          1  1.63062199E-06       *                     1_GWF-(1,1738)
 Package                            6                -0.25107734                     1_GWF-SFR-(221)-inflow
 Model                              7          1  3.20707869E-07       *                     1_GWF-(2,1709)
 Package                            7                -0.70254161                     1_GWF-SFR-(210)-inflow
 Model                              8          1  1.66432906E-06       *                     1_GWF-(2,1714)
 Package                            8                -0.11057359                     1_GWF-SFR-(210)-inflow
 Model                              9          1  2.58371898E-07       *                      1_GWF-(3,266)
 Package                            9                -0.66509239                     1_GWF-SFR-(210)-inflow
 Model                             10          1  1.22520009E-06       *                     1_GWF-(1,1730)
 Package                           10                -0.16517049                     1_GWF-SFR-(221)-inflow
 Model                             11          1  2.03315864E-07       *                     1_GWF-(2,1709)
 Package                           11                -0.52922547                     1_GWF-SFR-(210)-inflow
 Model                             12          1  1.24362998E-06       *                     1_GWF-(2,1709)
 Package                           12            -7.73482480E-02                     1_GWF-SFR-(210)-inflow
 Model                             13          1  1.88404670E-07       *                      1_GWF-(3,266)
 Package                           13                -0.47712456                     1_GWF-SFR-(210)-inflow
 Model                             14          1  6.69796464E-07       *                     1_GWF-(1,1738)
 Package                           14                -0.13078958                     1_GWF-SFR-(221)-inflow
 Model                             15          1  1.62676656E-07       *                     1_GWF-(2,1709)
 Package                           15                -0.30384445                     1_GWF-SFR-(210)-inflow
 Model                             16          1  7.07752719E-07       *                     1_GWF-(2,1714)
 Package                           16            -4.81389176E-02                     1_GWF-SFR-(210)-inflow
 Model                             17          1  1.10018561E-07       *                     1_GWF-(1,1740)
 Package                           17                -0.29062768                     1_GWF-SFR-(210)-inflow
 Model                             18          1  6.08054307E-07       *                     1_GWF-(1,1730)
 Package                           18            -7.18950485E-02                     1_GWF-SFR-(210)-inflow
 Model                             19          1 -8.85698057E-08       *                      1_GWF-(3,226)
 Package                           19                -0.26227028                     1_GWF-SFR-(210)-inflow
 Model                             20          1  6.30050550E-07       *                     1_GWF-(2,1714)
 Package                           20            -4.05514612E-02                     1_GWF-SFR-(210)-inflow
 Model                             21          1  8.77723494E-08       *                      1_GWF-(3,266)
 Package                           21                -0.23901780                     1_GWF-SFR-(210)-inflow
 Model                             22          1  2.97468318E-07       *                     1_GWF-(1,1738)
 Package                           22            -6.27398635E-02                     1_GWF-SFR-(221)-inflow
 Model                             23          1  7.69074688E-08       *                     1_GWF-(2,1709)
 Package                           23                -0.14070737                     1_GWF-SFR-(221)-inflow
 Model                             24          1  3.18431347E-07       *                     1_GWF-(2,1714)
 Package                           24            -2.11885027E-02                     1_GWF-SFR-(210)-inflow
 Model                             25          1  5.11184908E-08       *                     1_GWF-(1,1740)
 Package                           25                -0.13201359                     1_GWF-SFR-(210)-inflow
 Model                             26          1  2.71855356E-07       *                     1_GWF-(1,1729)
 Package                           26            -3.23398355E-02                     1_GWF-SFR-(210)-inflow
 Model                             27          1  4.06005540E-08       *                     1_GWF-(2,2003)
 Package                           27                -0.11839782                     1_GWF-SFR-(210)-inflow
 Model                             28          1  2.76114747E-07       *                     1_GWF-(2,1714)
 Package                           28            -1.88839646E-02                     1_GWF-SFR-(210)-inflow
 Model                             29          1  3.83058136E-08       *                      1_GWF-(3,118)
 Package                           29                -0.10603211                     1_GWF-SFR-(210)-inflow
 Model                             30          1  1.48633745E-07       *                     1_GWF-(1,1738)
 Package                           30            -2.71822943E-02                     1_GWF-SFR-(221)-inflow
 Model                             31          1  3.50628966E-08       *                      1_GWF-(3,404)
 Package                           31            -6.86183498E-02                     1_GWF-SFR-(210)-inflow
 Model                             32          1  1.53214359E-07       *                     1_GWF-(2,2000)
 Package                           32            -1.02678054E-02                     1_GWF-SFR-(210)-inflow
 Model                             33          1  2.38242137E-08       *                     1_GWF-(1,1740)
 Package                           33            -6.10812978E-02                     1_GWF-SFR-(210)-inflow
 Model                             34          1  1.10503294E-07       *                     1_GWF-(1,1730)
 Package                           34            -1.63957315E-02                     1_GWF-SFR-(221)-inflow
 Model                             35          1  2.04269099E-08       *                     1_GWF-(2,2003)
 Package                           35            -4.94693213E-02                     1_GWF-SFR-(210)-inflow
 Model                             36          1  1.12020416E-07       *                     1_GWF-(2,2000)
 Package                           36            -8.11164935E-03       *             1_GWF-SFR-(210)-inflow
 ----------------------------------------------------------------------------------------------------------


 36 CALLS TO NUMERICAL SOLUTION IN TIME STEP 1 STRESS PERIOD 2
 36 TOTAL ITERATIONS

 OUTER ITERATION SUMMARY
 ----------------------------------------------------------------------------------------------------------
                                OUTER      INNER                    STEP   MAXIMUM CHANGE MODEL-(CELLID) OR
 OUTER ITERATION STEP       ITERATION  ITERATION  MAXIMUM CHANGE SUCCESS             MODEL-PACKAGE-(NUMBER)
 ----------------------------------------------------------------------------------------------------------
 Model                              1          1  1.49822114E-07       *                     1_GWF-(1,3342)
 Package                            1                 -920853.72                     1_GWF-SFR-(210)-inflow
 Model                              2          1  3.10475230E-07       *                      1_GWF-(1,908)
 Package                            2            -1.81678619E-02                     1_GWF-SFR-(210)-inflow
 Model                              3          1  1.11362681E-07       *                     1_GWF-(3,2789)
 Package                            3            -7.44820378E-02                     1_GWF-SFR-(210)-inflow
 Model                              4          1  4.48281639E-07       *                     1_GWF-(2,1590)
 Package                            4            -3.95095964E-02                     1_GWF-SFR-(210)-inflow
 Model                              5          1  7.16788122E-08       *                      1_GWF-(3,118)
 Package                            5                -0.13433929                     1_GWF-SFR-(210)-inflow
 Model                              6          1  4.40567845E-07       *                     1_GWF-(3,1727)
 Package                            6            -4.24192072E-02                     1_GWF-SFR-(210)-inflow
 Model                              7          1  5.29256567E-08       *                     1_GWF-(2,1590)
 Package                            7                -0.14787733                     1_GWF-SFR-(210)-inflow
 Model                              8          1  3.77148268E-07       *                     1_GWF-(2,1590)
 Package                            8            -2.07617721E-02                     1_GWF-SFR-(210)-inflow
 Model                              9          1  7.89974592E-08       *                     1_GWF-(3,1727)
 Package                            9            -9.60030236E-02                     1_GWF-SFR-(210)-inflow
 Model                             10          1  1.71132626E-07       *                     1_GWF-(3,1724)
 Package                           10            -2.30364493E-02                     1_GWF-SFR-(210)-inflow
 Model                             11          1  8.40360030E-08       *                     1_GWF-(3,2952)
 Package                           11            -5.13264365E-02                     1_GWF-SFR-(210)-inflow
 Model                             12          1  9.61902913E-08       *                     1_GWF-(2,1590)
 Package                           12            -2.77193935E-03       *             1_GWF-SFR-(210)-inflow
 ----------------------------------------------------------------------------------------------------------


 12 CALLS TO NUMERICAL SOLUTION IN TIME STEP 2 STRESS PERIOD 2
 12 TOTAL ITERATIONS

 OUTER ITERATION SUMMARY
 ----------------------------------------------------------------------------------------------------------
                                OUTER      INNER                    STEP   MAXIMUM CHANGE MODEL-(CELLID) OR
 OUTER ITERATION STEP       ITERATION  ITERATION  MAXIMUM CHANGE SUCCESS             MODEL-PACKAGE-(NUMBER)
 ----------------------------------------------------------------------------------------------------------
 Model                              1          1  4.18758361E-08       *                     1_GWF-(1,1609)
 Package                            1                 -920854.41                     1_GWF-SFR-(210)-inflow
 Model                              2          1  7.71371447E-08       *                     1_GWF-(2,1322)
 Package                            2            -1.96151937E-03       *             1_GWF-SFR-(221)-inflow
 ----------------------------------------------------------------------------------------------------------


 2 CALLS TO NUMERICAL SOLUTION IN TIME STEP 3 STRESS PERIOD 2
 2 TOTAL ITERATIONS

 OUTER ITERATION SUMMARY
 ----------------------------------------------------------------------------------------------------------
                                OUTER      INNER                    STEP   MAXIMUM CHANGE MODEL-(CELLID) OR
 OUTER ITERATION STEP       ITERATION  ITERATION  MAXIMUM CHANGE SUCCESS             MODEL-PACKAGE-(NUMBER)
 ----------------------------------------------------------------------------------------------------------
 Model                              1          1  3.69830389E-08       *                     1_GWF-(1,1609)
 Package                            1                 -920854.45                     1_GWF-SFR-(210)-inflow
 Model                              2          1  5.04051627E-08       *                     1_GWF-(2,1322)
 Package                            2            -5.47069847E-03       *             1_GWF-SFR-(210)-inflow
 ----------------------------------------------------------------------------------------------------------


 2 CALLS TO NUMERICAL SOLUTION IN TIME STEP 4 STRESS PERIOD 2
 2 TOTAL ITERATIONS

 OUTER ITERATION SUMMARY
 ----------------------------------------------------------------------------------------------------------
                                OUTER      INNER                    STEP   MAXIMUM CHANGE MODEL-(CELLID) OR
 OUTER ITERATION STEP       ITERATION  ITERATION  MAXIMUM CHANGE SUCCESS             MODEL-PACKAGE-(NUMBER)
 ----------------------------------------------------------------------------------------------------------
 Model                              1          1  4.86928400E-08       *                     1_GWF-(1,2030)
 Package                            1                 -920854.48                     1_GWF-SFR-(210)-inflow
 Model                              2          1  3.16065893E-08       *                     1_GWF-(2,1322)
 Package                            2            -9.41643783E-03       *             1_GWF-SFR-(210)-inflow
 ----------------------------------------------------------------------------------------------------------


 2 CALLS TO NUMERICAL SOLUTION IN TIME STEP 5 STRESS PERIOD 2
 2 TOTAL ITERATIONS

 OUTER ITERATION SUMMARY
 ----------------------------------------------------------------------------------------------------------
                                OUTER      INNER                    STEP   MAXIMUM CHANGE MODEL-(CELLID) OR
 OUTER ITERATION STEP       ITERATION  ITERATION  MAXIMUM CHANGE SUCCESS             MODEL-PACKAGE-(NUMBER)
 ----------------------------------------------------------------------------------------------------------
 Model                              1          1  6.89687170E-08       *                     1_GWF-(1,2030)
 Package                            1                 -920854.51                     1_GWF-SFR-(210)-inflow
 Model                              2          1  2.23409984E-08       *                     1_GWF-(2,1322)
 Package                            2            -1.67506108E-02                     1_GWF-SFR-(210)-inflow
 Model                              3          1  1.21903099E-07       *                     1_GWF-(2,1869)
 Package                            3            -1.47658715E-02                     1_GWF-SFR-(210)-inflow
 Model                              4          1  1.63556706E-08       *                      1_GWF-(3,118)
 Package                            4            -4.07686106E-02                     1_GWF-SFR-(210)-inflow
 Model                              5          1  7.08365064E-08       *                     1_GWF-(1,1722)
 Package                            5            -1.25981851E-02                     1_GWF-SFR-(210)-inflow
 Model                              6          1  1.06753362E-08       *                     1_GWF-(1,1609)
 Package                            6            -3.08939227E-02                     1_GWF-SFR-(210)-inflow
 Model                              7          1  1.12172927E-07       *                     1_GWF-(2,1724)
 Package                            7            -4.98881943E-03       *             1_GWF-SFR-(210)-inflow
 ----------------------------------------------------------------------------------------------------------


 7 CALLS TO NUMERICAL SOLUTION IN TIME STEP 6 STRESS PERIOD 2
 7 TOTAL ITERATIONS

 OUTER ITERATION SUMMARY
 ----------------------------------------------------------------------------------------------------------
                                OUTER      INNER                    STEP   MAXIMUM CHANGE MODEL-(CELLID) OR
 OUTER ITERATION STEP       ITERATION  ITERATION  MAXIMUM CHANGE SUCCESS             MODEL-PACKAGE-(NUMBER)
 ----------------------------------------------------------------------------------------------------------
 Model                              1          1  9.05703246E-09       *                      1_GWF-(3,118)
 Package                            1                 -920854.68                     1_GWF-SFR-(210)-inflow
 Model                              2          1  7.71507587E-08       *                     1_GWF-(1,2004)
 Package                            2            -3.51927387E-03       *             1_GWF-SFR-(210)-inflow
 ----------------------------------------------------------------------------------------------------------


 2 CALLS TO NUMERICAL SOLUTION IN TIME STEP 7 STRESS PERIOD 2
 2 TOTAL ITERATIONS

 OUTER ITERATION SUMMARY
 ----------------------------------------------------------------------------------------------------------
                                OUTER      INNER                    STEP   MAXIMUM CHANGE MODEL-(CELLID) OR
 OUTER ITERATION STEP       ITERATION  ITERATION  MAXIMUM CHANGE SUCCESS             MODEL-PACKAGE-(NUMBER)
 ----------------------------------------------------------------------------------------------------------
 Model                              1          1  1.04701883E-08       *                     1_GWF-(3,2786)
 Package                            1                 -920854.71                     1_GWF-SFR-(210)-inflow
 Model                              2          1  3.22533253E-08       *                     1_GWF-(3,2786)
 Package                            2            -5.16642101E-03       *             1_GWF-SFR-(210)-inflow
 ----------------------------------------------------------------------------------------------------------


 2 CALLS TO NUMERICAL SOLUTION IN TIME STEP 8 STRESS PERIOD 2
 2 TOTAL ITERATIONS

 OUTER ITERATION SUMMARY
 ----------------------------------------------------------------------------------------------------------
                                OUTER      INNER                    STEP   MAXIMUM CHANGE MODEL-(CELLID) OR
 OUTER ITERATION STEP       ITERATION  ITERATION  MAXIMUM CHANGE SUCCESS             MODEL-PACKAGE-(NUMBER)
 ----------------------------------------------------------------------------------------------------------
 Model                              1          1  1.02069180E-08       *                     1_GWF-(3,1590)
 Package                            1                 -920854.73                     1_GWF-SFR-(210)-inflow
 Model                              2          1  3.23628342E-08       *                     1_GWF-(3,1727)
 Package                            2            -1.88724302E-03       *             1_GWF-SFR-(210)-inflow
 ----------------------------------------------------------------------------------------------------------


 2 CALLS TO NUMERICAL SOLUTION IN TIME STEP 9 STRESS PERIOD 2
 2 TOTAL ITERATIONS

 OUTER ITERATION SUMMARY
 ----------------------------------------------------------------------------------------------------------
                                OUTER      INNER                    STEP   MAXIMUM CHANGE MODEL-(CELLID) OR
 OUTER ITERATION STEP       ITERATION  ITERATION  MAXIMUM CHANGE SUCCESS             MODEL-PACKAGE-(NUMBER)
 ----------------------------------------------------------------------------------------------------------
 Model                              1          1  6.53884058E-09       *                     1_GWF-(2,1590)
 Package                            1                 -920854.74                     1_GWF-SFR-(210)-inflow
 Model                              2          1  2.58017110E-08       *                     1_GWF-(2,1590)
 Package                            2            -1.46853267E-03       *             1_GWF-SFR-(210)-inflow
 ----------------------------------------------------------------------------------------------------------


 2 CALLS TO NUMERICAL SOLUTION IN TIME STEP 10 STRESS PERIOD 2
 2 TOTAL ITERATIONS

 OUTER ITERATION SUMMARY
 ----------------------------------------------------------------------------------------------------------
                                OUTER      INNER                    STEP   MAXIMUM CHANGE MODEL-(CELLID) OR
 OUTER ITERATION STEP       ITERATION  ITERATION  MAXIMUM CHANGE SUCCESS             MODEL-PACKAGE-(NUMBER)
 ----------------------------------------------------------------------------------------------------------
 Model                              1          1  5.54155122E-09       *                     1_GWF-(3,1590)
 Package                            1                 -920854.75                     1_GWF-SFR-(210)-inflow
 Model                              2          1  1.59804472E-08       *                     1_GWF-(3,1727)
 Package                            2            -1.51570063E-03       *             1_GWF-SFR-(210)-inflow
 ----------------------------------------------------------------------------------------------------------


 2 CALLS TO NUMERICAL SOLUTION IN TIME STEP 11 STRESS PERIOD 2
 2 TOTAL ITERATIONS

 OUTER ITERATION SUMMARY
 ----------------------------------------------------------------------------------------------------------
                                OUTER      INNER                    STEP   MAXIMUM CHANGE MODEL-(CELLID) OR
 OUTER ITERATION STEP       ITERATION  ITERATION  MAXIMUM CHANGE SUCCESS             MODEL-PACKAGE-(NUMBER)
 ----------------------------------------------------------------------------------------------------------
 Model                              1          1  4.81361440E-09       *                     1_GWF-(3,2952)
 Package                            1                 -920854.76                     1_GWF-SFR-(210)-inflow
 Model                              2          1  9.44908152E-09       *                     1_GWF-(2,1587)
 Package                            2            -1.13547399E-03       *             1_GWF-SFR-(210)-inflow
 ----------------------------------------------------------------------------------------------------------


 2 CALLS TO NUMERICAL SOLUTION IN TIME STEP 12 STRESS PERIOD 2
 2 TOTAL ITERATIONS

 OUTER ITERATION SUMMARY
 ----------------------------------------------------------------------------------------------------------
                                OUTER      INNER                    STEP   MAXIMUM CHANGE MODEL-(CELLID) OR
 OUTER ITERATION STEP       ITERATION  ITERATION  MAXIMUM CHANGE SUCCESS             MODEL-PACKAGE-(NUMBER)
 ----------------------------------------------------------------------------------------------------------
 Model                              1          1  3.60867602E-09       *                     1_GWF-(1,1721)
 Package                            1                 -920854.76                     1_GWF-SFR-(210)-inflow
 Model                              2          1  6.11274231E-09       *                     1_GWF-(1,1322)
 Package                            2            -1.10704746E-03       *             1_GWF-SFR-(210)-inflow
 ----------------------------------------------------------------------------------------------------------


 2 CALLS TO NUMERICAL SOLUTION IN TIME STEP 13 STRESS PERIOD 2
 2 TOTAL ITERATIONS

 OUTER ITERATION SUMMARY
 ----------------------------------------------------------------------------------------------------------
                                OUTER      INNER                    STEP   MAXIMUM CHANGE MODEL-(CELLID) OR
 OUTER ITERATION STEP       ITERATION  ITERATION  MAXIMUM CHANGE SUCCESS             MODEL-PACKAGE-(NUMBER)
 ----------------------------------------------------------------------------------------------------------
 Model                              1          1  3.83943188E-09       *                     1_GWF-(2,1322)
 Package                            1                 -920854.77                     1_GWF-SFR-(210)-inflow
 Model                              2          1  4.20396873E-09       *                     1_GWF-(1,1322)
 Package                            2            -1.28675584E-03       *             1_GWF-SFR-(210)-inflow
 ----------------------------------------------------------------------------------------------------------


 2 CALLS TO NUMERICAL SOLUTION IN TIME STEP 14 STRESS PERIOD 2
 2 TOTAL ITERATIONS

 OUTER ITERATION SUMMARY
 ----------------------------------------------------------------------------------------------------------
                                OUTER      INNER                    STEP   MAXIMUM CHANGE MODEL-(CELLID) OR
 OUTER ITERATION STEP       ITERATION  ITERATION  MAXIMUM CHANGE SUCCESS             MODEL-PACKAGE-(NUMBER)
 ----------------------------------------------------------------------------------------------------------
 Model                              1          1  5.03013098E-09       *                     1_GWF-(1,1721)
 Package                            1                 -920854.77                     1_GWF-SFR-(210)-inflow
 Model                              2          1  2.92240543E-09       *                     1_GWF-(1,1322)
 Package                            2            -1.72766974E-03       *             1_GWF-SFR-(210)-inflow
 ----------------------------------------------------------------------------------------------------------


 2 CALLS TO NUMERICAL SOLUTION IN TIME STEP 15 STRESS PERIOD 2
 2 TOTAL ITERATIONS

 OUTER ITERATION SUMMARY
 ----------------------------------------------------------------------------------------------------------
                                OUTER      INNER                    STEP   MAXIMUM CHANGE MODEL-(CELLID) OR
 OUTER ITERATION STEP       ITERATION  ITERATION  MAXIMUM CHANGE SUCCESS             MODEL-PACKAGE-(NUMBER)
 ----------------------------------------------------------------------------------------------------------
 Model                              1          1  8.30533509E-09       *                     1_GWF-(1,1721)
 Package                            1                 -920854.77                     1_GWF-SFR-(210)-inflow
 Model                              2          1  2.06239292E-09       *                     1_GWF-(1,1322)
 Package                            2            -2.91407456E-03       *             1_GWF-SFR-(210)-inflow
 ----------------------------------------------------------------------------------------------------------


 2 CALLS TO NUMERICAL SOLUTION IN TIME STEP 16 STRESS PERIOD 2
 2 TOTAL ITERATIONS

 OUTER ITERATION SUMMARY
 ----------------------------------------------------------------------------------------------------------
                                OUTER      INNER                    STEP   MAXIMUM CHANGE MODEL-(CELLID) OR
 OUTER ITERATION STEP       ITERATION  ITERATION  MAXIMUM CHANGE SUCCESS             MODEL-PACKAGE-(NUMBER)
 ----------------------------------------------------------------------------------------------------------
 Model                              1          1  1.51178199E-08       *                     1_GWF-(1,1721)
 Package                            1                 -920854.78                     1_GWF-SFR-(210)-inflow
 Model                              2          1  1.79610993E-09       *                      1_GWF-(3,188)
 Package                            2            -5.71304559E-03       *             1_GWF-SFR-(210)-inflow
 ----------------------------------------------------------------------------------------------------------


 2 CALLS TO NUMERICAL SOLUTION IN TIME STEP 17 STRESS PERIOD 2
 2 TOTAL ITERATIONS

 OUTER ITERATION SUMMARY
 ----------------------------------------------------------------------------------------------------------
                                OUTER      INNER                    STEP   MAXIMUM CHANGE MODEL-(CELLID) OR
 OUTER ITERATION STEP       ITERATION  ITERATION  MAXIMUM CHANGE SUCCESS             MODEL-PACKAGE-(NUMBER)
 ----------------------------------------------------------------------------------------------------------
 Model                              1          1  5.39344569E-09       *                     1_GWF-(1,1727)
 Package                            1                 -920854.78                     1_GWF-SFR-(210)-inflow
 Model                              2          1  8.58534577E-10       *                     1_GWF-(1,1722)
 Package                            2            -2.40842046E-03       *             1_GWF-SFR-(210)-inflow
 ----------------------------------------------------------------------------------------------------------


 2 CALLS TO NUMERICAL SOLUTION IN TIME STEP 18 STRESS PERIOD 2
 2 TOTAL ITERATIONS

 OUTER ITERATION SUMMARY
 ----------------------------------------------------------------------------------------------------------
                                OUTER      INNER                    STEP   MAXIMUM CHANGE MODEL-(CELLID) OR
 OUTER ITERATION STEP       ITERATION  ITERATION  MAXIMUM CHANGE SUCCESS             MODEL-PACKAGE-(NUMBER)
 ----------------------------------------------------------------------------------------------------------
 Model                              1          1  1.12285079E-08       *                     1_GWF-(1,1727)
 Package                            1                 -920854.79                     1_GWF-SFR-(210)-inflow
 Model                              2          1  1.35725031E-09       *                      1_GWF-(3,118)
 Package                            2            -4.62160307E-03       *             1_GWF-SFR-(210)-inflow
 ----------------------------------------------------------------------------------------------------------


 2 CALLS TO NUMERICAL SOLUTION IN TIME STEP 19 STRESS PERIOD 2
 2 TOTAL ITERATIONS

 OUTER ITERATION SUMMARY
 ----------------------------------------------------------------------------------------------------------
                                OUTER      INNER                    STEP   MAXIMUM CHANGE MODEL-(CELLID) OR
 OUTER ITERATION STEP       ITERATION  ITERATION  MAXIMUM CHANGE SUCCESS             MODEL-PACKAGE-(NUMBER)
 ----------------------------------------------------------------------------------------------------------
 Model                              1          1  4.70160444E-09       *                     1_GWF-(1,1721)
 Package                            1                 -920854.79                     1_GWF-SFR-(210)-inflow
 Model                              2          1  6.57337296E-10       *                     1_GWF-(1,1322)
 Package                            2            -1.90427700E-03       *             1_GWF-SFR-(210)-inflow
 ----------------------------------------------------------------------------------------------------------


 2 CALLS TO NUMERICAL SOLUTION IN TIME STEP 20 STRESS PERIOD 2
 2 TOTAL ITERATIONS

 OUTER ITERATION SUMMARY
 ----------------------------------------------------------------------------------------------------------
                                OUTER      INNER                    STEP   MAXIMUM CHANGE MODEL-(CELLID) OR
 OUTER ITERATION STEP       ITERATION  ITERATION  MAXIMUM CHANGE SUCCESS             MODEL-PACKAGE-(NUMBER)
 ----------------------------------------------------------------------------------------------------------
 Model                              1          1  4.58351224E-09       *                     1_GWF-(1,2013)
 Package                            1                 -920854.79                     1_GWF-SFR-(210)-inflow
 Model                              2          1  4.83709073E-10       *                      1_GWF-(3,118)
 Package                            2            -1.77193063E-03       *             1_GWF-SFR-(210)-inflow
 ----------------------------------------------------------------------------------------------------------


 2 CALLS TO NUMERICAL SOLUTION IN TIME STEP 21 STRESS PERIOD 2
 2 TOTAL ITERATIONS

 OUTER ITERATION SUMMARY
 ----------------------------------------------------------------------------------------------------------
                                OUTER      INNER                    STEP   MAXIMUM CHANGE MODEL-(CELLID) OR
 OUTER ITERATION STEP       ITERATION  ITERATION  MAXIMUM CHANGE SUCCESS             MODEL-PACKAGE-(NUMBER)
 ----------------------------------------------------------------------------------------------------------
 Model                              1          1  1.68404313E-09       *                     1_GWF-(2,1709)
 Package                            1                 -920854.80                     1_GWF-SFR-(210)-inflow
 Model                              2          1  5.43224132E-10       *                     1_GWF-(1,1569)
 Package                            2            -6.64789303E-04       *             1_GWF-SFR-(210)-inflow
 ----------------------------------------------------------------------------------------------------------


 2 CALLS TO NUMERICAL SOLUTION IN TIME STEP 22 STRESS PERIOD 2
 2 TOTAL ITERATIONS

 OUTER ITERATION SUMMARY
 ----------------------------------------------------------------------------------------------------------
                                OUTER      INNER                    STEP   MAXIMUM CHANGE MODEL-(CELLID) OR
 OUTER ITERATION STEP       ITERATION  ITERATION  MAXIMUM CHANGE SUCCESS             MODEL-PACKAGE-(NUMBER)
 ----------------------------------------------------------------------------------------------------------
 Model                              1          1  2.24738983E-09       *                     1_GWF-(1,1727)
 Package                            1                 -920854.80                     1_GWF-SFR-(210)-inflow
 Model                              2          1  3.53850282E-10       *                      1_GWF-(3,118)
 Package                            2            -9.22572223E-04       *             1_GWF-SFR-(210)-inflow
 ----------------------------------------------------------------------------------------------------------


 2 CALLS TO NUMERICAL SOLUTION IN TIME STEP 23 STRESS PERIOD 2
 2 TOTAL ITERATIONS

 OUTER ITERATION SUMMARY
 ----------------------------------------------------------------------------------------------------------
                                OUTER      INNER                    STEP   MAXIMUM CHANGE MODEL-(CELLID) OR
 OUTER ITERATION STEP       ITERATION  ITERATION  MAXIMUM CHANGE SUCCESS             MODEL-PACKAGE-(NUMBER)
 ----------------------------------------------------------------------------------------------------------
 Model                              1          1  3.46182105E-09       *                     1_GWF-(2,1587)
 Package                            1                 -920854.80                     1_GWF-SFR-(210)-inflow
 Model                              2          1  5.60049784E-10       *                     1_GWF-(1,1590)
 Package                            2            -8.22419398E-04       *             1_GWF-SFR-(210)-inflow
 ----------------------------------------------------------------------------------------------------------


 2 CALLS TO NUMERICAL SOLUTION IN TIME STEP 24 STRESS PERIOD 2
 2 TOTAL ITERATIONS

 OUTER ITERATION SUMMARY
 ----------------------------------------------------------------------------------------------------------
                                OUTER      INNER                    STEP   MAXIMUM CHANGE MODEL-(CELLID) OR
 OUTER ITERATION STEP       ITERATION  ITERATION  MAXIMUM CHANGE SUCCESS             MODEL-PACKAGE-(NUMBER)
 ----------------------------------------------------------------------------------------------------------
 Model                              1          1 -4.42923920E-10       *                       1_GWF-(3,23)
 Package                            1                 -920854.80                     1_GWF-SFR-(210)-inflow
 Model                              2          1  2.31665354E-10       *                     1_GWF-(1,1709)
 Package                            2            -2.66849291E-04       *             1_GWF-SFR-(221)-inflow
 ----------------------------------------------------------------------------------------------------------


 2 CALLS TO NUMERICAL SOLUTION IN TIME STEP 25 STRESS PERIOD 2
 2 TOTAL ITERATIONS

 OUTER ITERATION SUMMARY
 ----------------------------------------------------------------------------------------------------------
                                OUTER      INNER                    STEP   MAXIMUM CHANGE MODEL-(CELLID) OR
 OUTER ITERATION STEP       ITERATION  ITERATION  MAXIMUM CHANGE SUCCESS             MODEL-PACKAGE-(NUMBER)
 ----------------------------------------------------------------------------------------------------------
 Model                              1          1  9.00229224E-10       *                     1_GWF-(1,1727)
 Package                            1                 -920854.80                     1_GWF-SFR-(210)-inflow
 Model                              2          1  1.56973101E-10       *                     1_GWF-(1,1709)
 Package                            2            -3.99579048E-04       *             1_GWF-SFR-(210)-inflow
 ----------------------------------------------------------------------------------------------------------


 2 CALLS TO NUMERICAL SOLUTION IN TIME STEP 26 STRESS PERIOD 2
 2 TOTAL ITERATIONS

 OUTER ITERATION SUMMARY
 ----------------------------------------------------------------------------------------------------------
                                OUTER      INNER                    STEP   MAXIMUM CHANGE MODEL-(CELLID) OR
 OUTER ITERATION STEP       ITERATION  ITERATION  MAXIMUM CHANGE SUCCESS             MODEL-PACKAGE-(NUMBER)
 ----------------------------------------------------------------------------------------------------------
 Model                              1          1  1.20439836E-09       *                     1_GWF-(1,1870)
 Package                            1                 -920854.80                     1_GWF-SFR-(210)-inflow
 Model                              2          1 -2.00458317E-10       *                       1_GWF-(3,86)
 Package                            2            -4.13877872E-04       *             1_GWF-SFR-(210)-inflow
 ----------------------------------------------------------------------------------------------------------


 2 CALLS TO NUMERICAL SOLUTION IN TIME STEP 27 STRESS PERIOD 2
 2 TOTAL ITERATIONS

 OUTER ITERATION SUMMARY
 ----------------------------------------------------------------------------------------------------------
                                OUTER      INNER                    STEP   MAXIMUM CHANGE MODEL-(CELLID) OR
 OUTER ITERATION STEP       ITERATION  ITERATION  MAXIMUM CHANGE SUCCESS             MODEL-PACKAGE-(NUMBER)
 ----------------------------------------------------------------------------------------------------------
 Model                              1          1  3.42737394E-10       *                     1_GWF-(2,2003)
 Package                            1                 -920854.80                     1_GWF-SFR-(210)-inflow
 Model                              2          1  9.55537871E-11       *                     1_GWF-(1,2024)
 Package                            2            -1.70694125E-04       *             1_GWF-SFR-(210)-inflow
 ----------------------------------------------------------------------------------------------------------


 2 CALLS TO NUMERICAL SOLUTION IN TIME STEP 28 STRESS PERIOD 2
 2 TOTAL ITERATIONS

 OUTER ITERATION SUMMARY
 ----------------------------------------------------------------------------------------------------------
                                OUTER      INNER                    STEP   MAXIMUM CHANGE MODEL-(CELLID) OR
 OUTER ITERATION STEP       ITERATION  ITERATION  MAXIMUM CHANGE SUCCESS             MODEL-PACKAGE-(NUMBER)
 ----------------------------------------------------------------------------------------------------------
 Model                              1          1  5.65364644E-10       *                     1_GWF-(1,1729)
 Package                            1                 -920854.80                     1_GWF-SFR-(210)-inflow
 Model                              2          1  6.86100066E-11       *                     1_GWF-(1,1322)
 Package                            2            -1.91178574E-04       *             1_GWF-SFR-(210)-inflow
 ----------------------------------------------------------------------------------------------------------


 2 CALLS TO NUMERICAL SOLUTION IN TIME STEP 29 STRESS PERIOD 2
 2 TOTAL ITERATIONS

 OUTER ITERATION SUMMARY
 ----------------------------------------------------------------------------------------------------------
                                OUTER      INNER                    STEP   MAXIMUM CHANGE MODEL-(CELLID) OR
 OUTER ITERATION STEP       ITERATION  ITERATION  MAXIMUM CHANGE SUCCESS             MODEL-PACKAGE-(NUMBER)
 ----------------------------------------------------------------------------------------------------------
 Model                              1          1  3.13775672E-10       *                     1_GWF-(3,2003)
 Package                            1                 -920854.80                     1_GWF-SFR-(210)-inflow
 Model                              2          1  5.39159828E-11       *                      1_GWF-(3,118)
 Package                            2            -1.41271503E-04       *             1_GWF-SFR-(210)-inflow
 ----------------------------------------------------------------------------------------------------------


 2 CALLS TO NUMERICAL SOLUTION IN TIME STEP 30 STRESS PERIOD 2
 2 TOTAL ITERATIONS

 OUTER ITERATION SUMMARY
 ----------------------------------------------------------------------------------------------------------
                                OUTER      INNER                    STEP   MAXIMUM CHANGE MODEL-(CELLID) OR
 OUTER ITERATION STEP       ITERATION  ITERATION  MAXIMUM CHANGE SUCCESS             MODEL-PACKAGE-(NUMBER)
 ----------------------------------------------------------------------------------------------------------
 Model                              1          1  3.01866976E-10       *                     1_GWF-(1,1727)
 Package                            1                 -920854.80                     1_GWF-SFR-(210)-inflow
 Model                              2          1  5.07611730E-11       *                     1_GWF-(3,2890)
 Package                            2            -8.12963912E-05       *             1_GWF-SFR-(210)-inflow
 ----------------------------------------------------------------------------------------------------------


 2 CALLS TO NUMERICAL SOLUTION IN TIME STEP 31 STRESS PERIOD 2
 2 TOTAL ITERATIONS

 OUTER ITERATION SUMMARY
 ----------------------------------------------------------------------------------------------------------
                                OUTER      INNER                    STEP   MAXIMUM CHANGE MODEL-(CELLID) OR
 OUTER ITERATION STEP       ITERATION  ITERATION  MAXIMUM CHANGE SUCCESS             MODEL-PACKAGE-(NUMBER)
 ----------------------------------------------------------------------------------------------------------
 Model                              1          1  1.49555035E-10       *                     1_GWF-(3,2003)
 Package                            1                 -920854.80                     1_GWF-SFR-(210)-inflow
 Model                              2          1  3.57260888E-11       *                     1_GWF-(3,2767)
 Package                            2            -7.31561212E-05       *             1_GWF-SFR-(210)-inflow
 ----------------------------------------------------------------------------------------------------------


 2 CALLS TO NUMERICAL SOLUTION IN TIME STEP 32 STRESS PERIOD 2
 2 TOTAL ITERATIONS

 OUTER ITERATION SUMMARY
 ----------------------------------------------------------------------------------------------------------
                                OUTER      INNER                    STEP   MAXIMUM CHANGE MODEL-(CELLID) OR
 OUTER ITERATION STEP       ITERATION  ITERATION  MAXIMUM CHANGE SUCCESS             MODEL-PACKAGE-(NUMBER)
 ----------------------------------------------------------------------------------------------------------
 Model                              1          1  1.52567736E-10       *                     1_GWF-(1,1727)
 Package                            1                 -920854.80                     1_GWF-SFR-(210)-inflow
 Model                              2          1  3.26281224E-11       *                     1_GWF-(2,2121)
 Package                            2            -4.83792389E-05       *             1_GWF-SFR-(210)-inflow
 ----------------------------------------------------------------------------------------------------------


 2 CALLS TO NUMERICAL SOLUTION IN TIME STEP 33 STRESS PERIOD 2
 2 TOTAL ITERATIONS

 OUTER ITERATION SUMMARY
 ----------------------------------------------------------------------------------------------------------
                                OUTER      INNER                    STEP   MAXIMUM CHANGE MODEL-(CELLID) OR
 OUTER ITERATION STEP       ITERATION  ITERATION  MAXIMUM CHANGE SUCCESS             MODEL-PACKAGE-(NUMBER)
 ----------------------------------------------------------------------------------------------------------
 Model                              1          1  8.75104433E-11       *                     1_GWF-(1,2121)
 Package                            1                 -920854.80                     1_GWF-SFR-(210)-inflow
 Model                              2          1  2.78816970E-11       *                     1_GWF-(1,1739)
 Package                            2            -3.89093283E-05       *             1_GWF-SFR-(210)-inflow
 ----------------------------------------------------------------------------------------------------------


 2 CALLS TO NUMERICAL SOLUTION IN TIME STEP 34 STRESS PERIOD 2
 2 TOTAL ITERATIONS

 OUTER ITERATION SUMMARY
 ----------------------------------------------------------------------------------------------------------
                                OUTER      INNER                    STEP   MAXIMUM CHANGE MODEL-(CELLID) OR
 OUTER ITERATION STEP       ITERATION  ITERATION  MAXIMUM CHANGE SUCCESS             MODEL-PACKAGE-(NUMBER)
 ----------------------------------------------------------------------------------------------------------
 Model                              1          1  7.01732006E-11       *                     1_GWF-(1,1727)
 Package                            1                 -920854.80                     1_GWF-SFR-(210)-inflow
 Model                              2          1  2.85638180E-11       *                     1_GWF-(2,2126)
 Package                            2            -2.78801676E-05       *             1_GWF-SFR-(210)-inflow
 ----------------------------------------------------------------------------------------------------------


 2 CALLS TO NUMERICAL SOLUTION IN TIME STEP 35 STRESS PERIOD 2
 2 TOTAL ITERATIONS

 OUTER ITERATION SUMMARY
 ----------------------------------------------------------------------------------------------------------
                                OUTER      INNER                    STEP   MAXIMUM CHANGE MODEL-(CELLID) OR
 OUTER ITERATION STEP       ITERATION  ITERATION  MAXIMUM CHANGE SUCCESS             MODEL-PACKAGE-(NUMBER)
 ----------------------------------------------------------------------------------------------------------
 Model                              1          1  5.01643171E-11       *                     1_GWF-(1,2030)
 Package                            1                 -920854.80                     1_GWF-SFR-(210)-inflow
 Model                              2          1  2.76543233E-11       *                     1_GWF-(1,1740)
 Package                            2            -2.15321165E-05       *             1_GWF-SFR-(210)-inflow
 ----------------------------------------------------------------------------------------------------------


 2 CALLS TO NUMERICAL SOLUTION IN TIME STEP 36 STRESS PERIOD 2
 2 TOTAL ITERATIONS

 OUTER ITERATION SUMMARY
 ----------------------------------------------------------------------------------------------------------
                                OUTER      INNER                    STEP   MAXIMUM CHANGE MODEL-(CELLID) OR
 OUTER ITERATION STEP       ITERATION  ITERATION  MAXIMUM CHANGE SUCCESS             MODEL-PACKAGE-(NUMBER)
 ----------------------------------------------------------------------------------------------------------
 Model                              1          1  3.92788024E-11       *                     1_GWF-(1,2030)
 Package                            1                 -920854.80                     1_GWF-SFR-(210)-inflow
 Model                              2          1  2.61763944E-11       *                     1_GWF-(1,1709)
 Package                            2            -1.68482405E-05       *             1_GWF-SFR-(210)-inflow
 ----------------------------------------------------------------------------------------------------------


 2 CALLS TO NUMERICAL SOLUTION IN TIME STEP 37 STRESS PERIOD 2
 2 TOTAL ITERATIONS

 OUTER ITERATION SUMMARY
 ----------------------------------------------------------------------------------------------------------
                                OUTER      INNER                    STEP   MAXIMUM CHANGE MODEL-(CELLID) OR
 OUTER ITERATION STEP       ITERATION  ITERATION  MAXIMUM CHANGE SUCCESS             MODEL-PACKAGE-(NUMBER)
 ----------------------------------------------------------------------------------------------------------
 Model                              1          1  3.16617843E-11       *                     1_GWF-(1,2030)
 Package                            1                 -920854.80                     1_GWF-SFR-(210)-inflow
 Model                              2          1  2.39595010E-11       *                     1_GWF-(1,1880)
 Package                            2            -1.36639398E-05       *             1_GWF-SFR-(210)-inflow
 ----------------------------------------------------------------------------------------------------------


 2 CALLS TO NUMERICAL SOLUTION IN TIME STEP 38 STRESS PERIOD 2
 2 TOTAL ITERATIONS

 OUTER ITERATION SUMMARY
 ----------------------------------------------------------------------------------------------------------
                                OUTER      INNER                    STEP   MAXIMUM CHANGE MODEL-(CELLID) OR
 OUTER ITERATION STEP       ITERATION  ITERATION  MAXIMUM CHANGE SUCCESS             MODEL-PACKAGE-(NUMBER)
 ----------------------------------------------------------------------------------------------------------
 Model                              1          1  2.54374299E-11       *                     1_GWF-(1,1860)
 Package                            1                 -920854.80                     1_GWF-SFR-(210)-inflow
 Model                              2          1  2.02931005E-11       *                     1_GWF-(1,1880)
 Package                            2            -1.09698812E-05       *             1_GWF-SFR-(210)-inflow
 ----------------------------------------------------------------------------------------------------------


 2 CALLS TO NUMERICAL SOLUTION IN TIME STEP 39 STRESS PERIOD 2
 2 TOTAL ITERATIONS

 OUTER ITERATION SUMMARY
 ----------------------------------------------------------------------------------------------------------
                                OUTER      INNER                    STEP   MAXIMUM CHANGE MODEL-(CELLID) OR
 OUTER ITERATION STEP       ITERATION  ITERATION  MAXIMUM CHANGE SUCCESS             MODEL-PACKAGE-(NUMBER)
 ----------------------------------------------------------------------------------------------------------
 Model                              1          1  2.02646788E-11       *                     1_GWF-(1,1860)
 Package                            1                 -920854.80                     1_GWF-SFR-(210)-inflow
 Model                              2          1  1.68540737E-11       *                     1_GWF-(1,1878)
 Package                            2            -8.13058759E-06       *             1_GWF-SFR-(210)-inflow
 ----------------------------------------------------------------------------------------------------------


 2 CALLS TO NUMERICAL SOLUTION IN TIME STEP 40 STRESS PERIOD 2
 2 TOTAL ITERATIONS

 OUTER ITERATION SUMMARY
 ----------------------------------------------------------------------------------------------------------
                                OUTER      INNER                    STEP   MAXIMUM CHANGE MODEL-(CELLID) OR
 OUTER ITERATION STEP       ITERATION  ITERATION  MAXIMUM CHANGE SUCCESS             MODEL-PACKAGE-(NUMBER)
 ----------------------------------------------------------------------------------------------------------
 Model                              1          1  1.60298441E-11       *                     1_GWF-(1,1727)
 Package                            1                 -920854.80                     1_GWF-SFR-(210)-inflow
 Model                              2          1  1.41255896E-11       *                     1_GWF-(1,1878)
 Package                            2            -6.23482709E-06       *             1_GWF-SFR-(210)-inflow
 ----------------------------------------------------------------------------------------------------------


 2 CALLS TO NUMERICAL SOLUTION IN TIME STEP 41 STRESS PERIOD 2
 2 TOTAL ITERATIONS

 OUTER ITERATION SUMMARY
 ----------------------------------------------------------------------------------------------------------
                                OUTER      INNER                    STEP   MAXIMUM CHANGE MODEL-(CELLID) OR
 OUTER ITERATION STEP       ITERATION  ITERATION  MAXIMUM CHANGE SUCCESS             MODEL-PACKAGE-(NUMBER)
 ----------------------------------------------------------------------------------------------------------
 Model                              1          1  1.32729383E-11       *                     1_GWF-(1,1730)
 Package                            1                 -920854.80                     1_GWF-SFR-(210)-inflow
 Model                              2          1  1.19655397E-11       *                     1_GWF-(1,1876)
 Package                            2            -5.42743941E-06       *             1_GWF-SFR-(210)-inflow
 ----------------------------------------------------------------------------------------------------------


 2 CALLS TO NUMERICAL SOLUTION IN TIME STEP 42 STRESS PERIOD 2
 2 TOTAL ITERATIONS

 OUTER ITERATION SUMMARY
 ----------------------------------------------------------------------------------------------------------
                                OUTER      INNER                    STEP   MAXIMUM CHANGE MODEL-(CELLID) OR
 OUTER ITERATION STEP       ITERATION  ITERATION  MAXIMUM CHANGE SUCCESS             MODEL-PACKAGE-(NUMBER)
 ----------------------------------------------------------------------------------------------------------
 Model                              1          1  1.13118404E-11       *                     1_GWF-(1,1730)
 Package                            1                 -920854.80                     1_GWF-SFR-(210)-inflow
 Model                              2          1  1.03170805E-11       *                     1_GWF-(1,2003)
 Package                            2            -4.92692228E-06       *             1_GWF-SFR-(210)-inflow
 ----------------------------------------------------------------------------------------------------------


 2 CALLS TO NUMERICAL SOLUTION IN TIME STEP 43 STRESS PERIOD 2
 2 TOTAL ITERATIONS

 OUTER ITERATION SUMMARY
 ----------------------------------------------------------------------------------------------------------
                                OUTER      INNER                    STEP   MAXIMUM CHANGE MODEL-(CELLID) OR
 OUTER ITERATION STEP       ITERATION  ITERATION  MAXIMUM CHANGE SUCCESS             MODEL-PACKAGE-(NUMBER)
 ----------------------------------------------------------------------------------------------------------
 Model                              1          1  1.00044417E-11       *                     1_GWF-(1,1730)
 Package                            1                 -920854.80                     1_GWF-SFR-(210)-inflow
 Model                              2          1  9.03810360E-12       *                     1_GWF-(2,1722)
 Package                            2            -4.17664058E-06       *             1_GWF-SFR-(210)-inflow
 ----------------------------------------------------------------------------------------------------------


 2 CALLS TO NUMERICAL SOLUTION IN TIME STEP 44 STRESS PERIOD 2
 2 TOTAL ITERATIONS

 OUTER ITERATION SUMMARY
 ----------------------------------------------------------------------------------------------------------
                                OUTER      INNER                    STEP   MAXIMUM CHANGE MODEL-(CELLID) OR
 OUTER ITERATION STEP       ITERATION  ITERATION  MAXIMUM CHANGE SUCCESS             MODEL-PACKAGE-(NUMBER)
 ----------------------------------------------------------------------------------------------------------
 Model                              1          1  8.75388650E-12       *                     1_GWF-(1,1730)
 Package                            1                 -920854.80                     1_GWF-SFR-(210)-inflow
 Model                              2          1  8.01492206E-12       *                     1_GWF-(2,1722)
 Package                            2            -3.58424012E-06       *             1_GWF-SFR-(210)-inflow
 ----------------------------------------------------------------------------------------------------------


 2 CALLS TO NUMERICAL SOLUTION IN TIME STEP 45 STRESS PERIOD 2
 2 TOTAL ITERATIONS

 OUTER ITERATION SUMMARY
 ----------------------------------------------------------------------------------------------------------
                                OUTER      INNER                    STEP   MAXIMUM CHANGE MODEL-(CELLID) OR
 OUTER ITERATION STEP       ITERATION  ITERATION  MAXIMUM CHANGE SUCCESS             MODEL-PACKAGE-(NUMBER)
 ----------------------------------------------------------------------------------------------------------
 Model                              1          1  7.70228326E-12       *                     1_GWF-(1,1598)
 Package                            1                 -920854.80                     1_GWF-SFR-(210)-inflow
 Model                              2          1  7.27595761E-12       *                     1_GWF-(1,1596)
 Package                            2            -3.33961312E-06       *             1_GWF-SFR-(210)-inflow
 ----------------------------------------------------------------------------------------------------------


 2 CALLS TO NUMERICAL SOLUTION IN TIME STEP 46 STRESS PERIOD 2
 2 TOTAL ITERATIONS

 OUTER ITERATION SUMMARY
 ----------------------------------------------------------------------------------------------------------
                                OUTER      INNER                    STEP   MAXIMUM CHANGE MODEL-(CELLID) OR
 OUTER ITERATION STEP       ITERATION  ITERATION  MAXIMUM CHANGE SUCCESS             MODEL-PACKAGE-(NUMBER)
 ----------------------------------------------------------------------------------------------------------
 Model                              1          1  6.90647539E-12       *                     1_GWF-(1,1586)
 Package                            1                 -920854.80                     1_GWF-SFR-(210)-inflow
 Model                              2          1  6.56541488E-12       *                     1_GWF-(1,1588)
 Package                            2            -3.11494356E-06       *             1_GWF-SFR-(210)-inflow
 ----------------------------------------------------------------------------------------------------------


 2 CALLS TO NUMERICAL SOLUTION IN TIME STEP 47 STRESS PERIOD 2
 2 TOTAL ITERATIONS

 OUTER ITERATION SUMMARY
 ----------------------------------------------------------------------------------------------------------
                                OUTER      INNER                    STEP   MAXIMUM CHANGE MODEL-(CELLID) OR
 OUTER ITERATION STEP       ITERATION  ITERATION  MAXIMUM CHANGE SUCCESS             MODEL-PACKAGE-(NUMBER)
 ----------------------------------------------------------------------------------------------------------
 Model                              1          1  6.19593266E-12       *                     1_GWF-(1,1728)
 Package                            1                 -920854.80                     1_GWF-SFR-(210)-inflow
 Model                              2          1  5.94013727E-12       *                     1_GWF-(1,1870)
 Package                            2            -2.62865353E-06       *             1_GWF-SFR-(210)-inflow
 ----------------------------------------------------------------------------------------------------------


 2 CALLS TO NUMERICAL SOLUTION IN TIME STEP 48 STRESS PERIOD 2
 2 TOTAL ITERATIONS

 MEMORY MANAGER TOTAL STORAGE BY DATA TYPE, IN MEGABYTES
 -------------------------------
                    ALLOCATED   
 DATA TYPE           MEMORY     
 -------------------------------
 Character        2.00330000E-02
 Logical          4.40000000E-05
 Integer          2.5196080     
 Real             5.9026400     
 -------------------------------
 Total            8.4423250     
 -------------------------------


 
 Run end date and time (yyyy/mm/dd hh:mm:ss): 2021/11/09 14:51:39
 Elapsed run time: 11.575 Seconds
 Normal termination of simulation.
