                                   MODFLOW 6
                U.S. GEOLOGICAL SURVEY MODULAR HYDROLOGIC MODEL
                            VERSION 6.2.1 02/18/2021

   MODFLOW 6 compiled Feb 18 2021 21:14:51 with IFORT compiler (ver. 19.10.3)

This software has been approved for release by the U.S. Geological 
Survey (USGS). Although the software has been subjected to rigorous 
review, the USGS reserves the right to update the software as needed 
pursuant to further analysis and review. No warranty, expressed or 
implied, is made by the USGS or the U.S. Government as to the 
functionality of the software and related material nor shall the 
fact of release constitute any such warranty. Furthermore, the 
software is released on condition that neither the USGS nor the U.S. 
Government shall be held liable for any damages resulting from its 
authorized or unauthorized use. Also refer to the USGS Water 
Resources Software User Rights Notice for complete use, copyright, 
and distribution information.


System command used to initiate simulation:
..\bins\win\mf6

MODFLOW was compiled using uniform precision.

Real Variables
  KIND: 8
  TINY (smallest non-zero value):    2.225074-308
  HUGE (largest value):    1.797693+308
  PRECISION: 15
  BIT SIZE: 64

Integer Variables
  KIND: 4
  HUGE (largest value): 2147483647
  BIT SIZE: 32

Long Integer Variables
  KIND: 8
  HUGE (largest value): 9223372036854775807
  BIT SIZE: 64

Logical Variables
  KIND: 4
  BIT SIZE: 32
 

 OPENED mfsim.nam
 FILE TYPE:NAM   UNIT 1001   STATUS:OLD                 
 FORMAT:FORMATTED              ACCESS:SEQUENTIAL          
 ACTION:READ                

 # File generated by Flopy version 3.3.5 on 11/03/2021 at 13:12:39.

 READING SIMULATION OPTIONS
 END OF SIMULATION OPTIONS

 READING SIMULATION TIMING

 OPENED experimental.tdis
 FILE TYPE:TDIS   UNIT 1002   STATUS:OLD                 
 FORMAT:FORMATTED              ACCESS:SEQUENTIAL          
 ACTION:READ                


 TDIS -- TEMPORAL DISCRETIZATION PACKAGE,
 VERSION 1 : 11/13/2014 - INPUT READ FROM UNIT 1002
 # File generated by Flopy version 3.3.5 on 11/03/2021 at 13:12:39.
 PROCESSING TDIS OPTIONS
    SIMULATION TIME UNIT IS DAYS
 END OF TDIS OPTIONS
 PROCESSING TDIS DIMENSIONS
    2 STRESS PERIOD(S) IN SIMULATION
 END OF TDIS DIMENSIONS
 PROCESSING TDIS PERIODDATA


 STRESS PERIOD     LENGTH       TIME STEPS     MULTIPLIER FOR DELT
 ----------------------------------------------------------------------------
        1         1.000000          1                    1.000
        2         1460.000         48                    1.000
 END OF TDIS PERIODDATA
 END OF SIMULATION TIMING

 READING SIMULATION MODELS
    GWF6 model EXPERIMENTAL will be created as model 1
 END OF SIMULATION MODELS

 READING SIMULATION EXCHANGES
 END OF SIMULATION EXCHANGES

 READING SOLUTIONGROUP

 Creating solution: SLN_1           

 OPENED experimental.ims
 FILE TYPE:IMS   UNIT 1014   STATUS:OLD                 
 FORMAT:FORMATTED              ACCESS:SEQUENTIAL          
 ACTION:READ                

 END OF SIMULATION SOLUTIONGROUP

 IMS -- ITERATIVE MODEL SOLUTION PACKAGE, VERSION 6, 4/28/2017
         INPUT READ FROM UNIT 1014
 # File generated by Flopy version 3.3.5 on 11/03/2021 at 13:12:39.

 PROCESSING IMS OPTIONS
 SIMPLE OPTION:
 DEFAULT SOLVER INPUT VALUES FOR FAST SOLUTIONS
 END OF IMS OPTIONS

 PROCESSING IMS NONLINEAR
 END OF IMS NONLINEAR DATA
 ***UNDER-RELAXATION WILL NOT BE USED***
 
 ***IMS LINEAR SOLVER WILL BE USED***

 IMSLINEAR -- UNSTRUCTURED LINEAR SOLUTION PACKAGE, VERSION 8, 04/28/2017

 PROCESSING LINEAR DATA
 END OF LINEAR DATA
 
 OUTER ITERATION CONVERGENCE CRITERION    (DVCLOSE) =    0.100000E-01
 MAXIMUM NUMBER OF OUTER ITERATIONS        (MXITER) = 750
 SOLVER PRINTOUT INDEX                     (IPRIMS) = 1
 NONLINEAR ITERATION METHOD            (NONLINMETH) = 0
 LINEAR SOLUTION METHOD                   (LINMETH) = 1

       SOLUTION BY THE BICONJUGATE-GRADIENT STABILIZED METHOD
 ------------------------------------------------------------------
 MAXIMUM OF 750 CALLS OF SOLUTION ROUTINE
 MAXIMUM OF 50 INTERNAL ITERATIONS PER CALL TO SOLUTION ROUTINE
 LINEAR ACCELERATION METHOD            = BCGS      
 MATRIX PRECONDITIONING TYPE           = INCOMPLETE LU       
 MATRIX SCALING APPROACH               = NO SCALING          
 MATRIX REORDERING APPROACH            = ORIGINAL ORDERING        
 NUMBER OF ORTHOGONALIZATIONS          = 0
 HEAD CHANGE CRITERION FOR CLOSURE     =    0.10000E-02
 RESIDUAL CHANGE CRITERION FOR CLOSURE =    0.10000E+00
 RESIDUAL CONVERGENCE OPTION           = 0
 RESIDUAL CONVERGENCE NORM             = INFINITY NORM   
 RELAXATION FACTOR                     =    0.00000E+00



1
                            STRESS PERIOD NO.    1, LENGTH =   1.000000    
                            -----------------------------------------------

                              NUMBER OF TIME STEPS =     1

                               MULTIPLIER FOR DELT =     1.000

                            INITIAL TIME STEP SIZE =   1.000000    

 OUTER ITERATION SUMMARY
 ----------------------------------------------------------------------------------------------------------
                                OUTER      INNER                    STEP   MAXIMUM CHANGE MODEL-(CELLID) OR
 OUTER ITERATION STEP       ITERATION  ITERATION  MAXIMUM CHANGE SUCCESS             MODEL-PACKAGE-(NUMBER)
 ----------------------------------------------------------------------------------------------------------
 Model                              1         42       29.790072                             1_GWF-(1,1996)
 Model                              2         34      -21.884948                             1_GWF-(1,2283)
 Model                              3         29      -2.1023281                             1_GWF-(1,2888)
 Model                              4         24     -0.52178232                             1_GWF-(1,1727)
 Model                              5         20     -0.15165895                               1_GWF-(1,95)
 Model                              6         16 -3.93126772E-02                               1_GWF-(1,66)
 Model                              7          7 -8.66248744E-03       *                       1_GWF-(1,63)
 Package                            7                  13322.208                     1_GWF-SFR-(206)-inflow
 Model                              8          2 -1.51338992E-03       *                       1_GWF-(1,36)
 Package                            8                  2457.0112                     1_GWF-SFR-(206)-inflow
 Model                              9          1 -2.68800553E-04       *                       1_GWF-(1,63)
 Package                            9                  375.14177                     1_GWF-SFR-(206)-inflow
 Model                             10          1 -5.96030496E-04       *                      1_GWF-(2,100)
 Package                           10                  60.720172                     1_GWF-SFR-(206)-inflow
 Model                             11          1 -4.04753063E-04       *                       1_GWF-(3,96)
 Package                           11                  57.724747                     1_GWF-SFR-(206)-inflow
 Model                             12          1 -8.20035009E-04       *                      1_GWF-(3,437)
 Package                           12                  8.1885726                     1_GWF-SFR-(206)-inflow
 Model                             13          1 -1.52748953E-04       *                       1_GWF-(2,16)
 Package                           13                  46.675527                     1_GWF-SFR-(206)-inflow
 Model                             14          1 -8.02253157E-04       *                      1_GWF-(3,998)
 Package                           14                 -4.5166596                     1_GWF-SFR-(206)-inflow
 Model                             15          1 -1.08244415E-04       *                       1_GWF-(2,60)
 Package                           15                  14.085886                     1_GWF-SFR-(206)-inflow
 Model                             16          1 -5.21534750E-04       *                     1_GWF-(3,1088)
 Package                           16                  5.7420928                     1_GWF-SFR-(206)-inflow
 Model                             17          1 -8.75862752E-05       *                      1_GWF-(3,914)
 Package                           17                  20.474467                     1_GWF-SFR-(206)-inflow
 Model                             18          1 -2.25696914E-04       *                     1_GWF-(3,1930)
 Package                           18                 -1.1487169                     1_GWF-SFR-(206)-inflow
 Model                             19          1 -7.04396755E-05       *                      1_GWF-(2,299)
 Package                           19                 -2.6691416                     1_GWF-SFR-(217)-inflow
 Model                             20          1 -1.28449161E-04       *                     1_GWF-(3,1332)
 Package                           20                  5.3703327                     1_GWF-SFR-(206)-inflow
 Model                             21          1 -4.54301947E-05       *                     1_GWF-(3,1699)
 Package                           21                  3.2912159                     1_GWF-SFR-(206)-inflow
 Model                             22          1 -1.04277726E-04       *                     1_GWF-(3,1854)
 Package                           22                  1.5514856                     1_GWF-SFR-(206)-inflow
 Model                             23          1 -3.44319359E-05       *                     1_GWF-(3,1588)
 Package                           23                  1.6936646                     1_GWF-SFR-(206)-inflow
 Model                             24          1 -1.09104491E-04       *                     1_GWF-(3,1854)
 Package                           24                  1.5089155                     1_GWF-SFR-(206)-inflow
 Model                             25          1 -2.56951607E-05       *                     1_GWF-(3,1587)
 Package                           25                  2.3804895                     1_GWF-SFR-(206)-inflow
 Model                             26          1 -1.51318744E-04       *                     1_GWF-(3,1854)
 Package                           26                  1.0856271                     1_GWF-SFR-(206)-inflow
 Model                             27          1 -2.48989849E-05       *                     1_GWF-(1,2623)
 Package                           27                  3.3784891                     1_GWF-SFR-(206)-inflow
 Model                             28          1 -2.21645640E-04       *                     1_GWF-(3,1591)
 Package                           28                 0.91297594                     1_GWF-SFR-(217)-inflow
 Model                             29          1 -1.44980287E-05       *                     1_GWF-(1,3126)
 Package                           29                  6.8283168                     1_GWF-SFR-(206)-inflow
 Model                             30          1 -1.80458623E-05       *                     1_GWF-(3,1486)
 Package                           30                 0.20629429                     1_GWF-SFR-(217)-inflow
 Model                             31          1 -8.14906051E-06       *                     1_GWF-(3,1333)
 Package                           31            -7.20577532E-02                     1_GWF-SFR-(217)-inflow
 Model                             32          1 -6.55375999E-06       *                     1_GWF-(3,2215)
 Package                           32                 0.20161379                     1_GWF-SFR-(206)-inflow
 Model                             33          1 -4.88466739E-06       *                     1_GWF-(2,1331)
 Package                           33                 0.29393622                     1_GWF-SFR-(206)-inflow
 Model                             34          1 -6.44173232E-06       *                     1_GWF-(3,1493)
 Package                           34             2.39870900E-02                     1_GWF-SFR-(206)-inflow
 Model                             35          1 -3.60776542E-06       *                     1_GWF-(2,1252)
 Package                           35                 0.23642055                     1_GWF-SFR-(206)-inflow
 Model                             36          1 -7.99466525E-06       *                     1_GWF-(3,2215)
 Package                           36             2.67303672E-02                     1_GWF-SFR-(206)-inflow
 Model                             37          1 -2.49778500E-06       *                     1_GWF-(2,1252)
 Package                           37                 0.24793887                     1_GWF-SFR-(206)-inflow
 Model                             38          1 -1.50389367E-05       *                     1_GWF-(3,2215)
 Package                           38             2.29568149E-02                     1_GWF-SFR-(206)-inflow
 Model                             39          1 -2.73182874E-06       *                     1_GWF-(1,2623)
 Package                           39                 0.41488190                     1_GWF-SFR-(206)-inflow
 Model                             40          1 -1.83925791E-05       *                     1_GWF-(3,1937)
 Package                           40             2.69169164E-02                     1_GWF-SFR-(206)-inflow
 Model                             41          1 -1.87567844E-06       *                     1_GWF-(1,2623)
 Package                           41                 0.48456792                     1_GWF-SFR-(206)-inflow
 Model                             42          1 -7.68165989E-07       *                     1_GWF-(3,1407)
 Package                           42             4.01910888E-02                     1_GWF-SFR-(217)-inflow
 Model                             43          1 -7.81311797E-07       *                     1_GWF-(3,1581)
 Package                           43             2.05743907E-02                     1_GWF-SFR-(206)-inflow
 Model                             44          1 -7.11844024E-07       *                     1_GWF-(3,1407)
 Package                           44             1.24427300E-02                     1_GWF-SFR-(206)-inflow
 Model                             45          1 -5.97986059E-07       *                     1_GWF-(3,1581)
 Package                           45             1.91049294E-02                     1_GWF-SFR-(206)-inflow
 Model                             46          1 -7.07332504E-07       *                     1_GWF-(3,1407)
 Package                           46             8.39554019E-03       *             1_GWF-SFR-(206)-inflow
 ----------------------------------------------------------------------------------------------------------


 46 CALLS TO NUMERICAL SOLUTION IN TIME STEP 1 STRESS PERIOD 1
 212 TOTAL ITERATIONS
1
                            STRESS PERIOD NO.    2, LENGTH =   1460.000    
                            -----------------------------------------------

                              NUMBER OF TIME STEPS =    48

                               MULTIPLIER FOR DELT =     1.000

                            INITIAL TIME STEP SIZE =   30.41667    

 OUTER ITERATION SUMMARY
 ----------------------------------------------------------------------------------------------------------
                                OUTER      INNER                    STEP   MAXIMUM CHANGE MODEL-(CELLID) OR
 OUTER ITERATION STEP       ITERATION  ITERATION  MAXIMUM CHANGE SUCCESS             MODEL-PACKAGE-(NUMBER)
 ----------------------------------------------------------------------------------------------------------
 Model                              1          1 -4.55394371E-07       *                     1_GWF-(3,1581)
 Package                            1                 -26210685.                     1_GWF-SFR-(206)-inflow
 Model                              2          1 -7.81417043E-07       *                     1_GWF-(3,2146)
 Package                            2                 0.18081592                     1_GWF-SFR-(206)-inflow
 Model                              3          1 -3.27057222E-07       *                     1_GWF-(3,1581)
 Package                            3                 0.61400346                     1_GWF-SFR-(206)-inflow
 Model                              4          1 -1.16226147E-06       *                     1_GWF-(3,2146)
 Package                            4                 0.12402346                     1_GWF-SFR-(206)-inflow
 Model                              5          1 -2.48367655E-07       *                     1_GWF-(1,2623)
 Package                            5                 0.88550726                     1_GWF-SFR-(206)-inflow
 Model                              6          1 -2.94462026E-06       *                     1_GWF-(3,2146)
 Package                            6             9.26764806E-02                     1_GWF-SFR-(206)-inflow
 Model                              7          1 -2.02954112E-07       *                     1_GWF-(1,3126)
 Package                            7                  2.3355618                     1_GWF-SFR-(206)-inflow
 Model                              8          1 -2.99564817E-08       *                     1_GWF-(3,2012)
 Package                            8                 0.15277659                     1_GWF-SFR-(217)-inflow
 Model                              9          1 -1.08090603E-07       *                     1_GWF-(3,2146)
 Package                            9             3.22917685E-02                     1_GWF-SFR-(217)-inflow
 Model                             10          1 -2.38388793E-08       *                     1_GWF-(2,1005)
 Package                           10             4.48698633E-02                     1_GWF-SFR-(206)-inflow
 Model                             11          1 -1.07174372E-07       *                     1_GWF-(3,2076)
 Package                           11             3.27777612E-02                     1_GWF-SFR-(217)-inflow
 Model                             12          1 -1.79005610E-08       *                     1_GWF-(1,3126)
 Package                           12             6.53704538E-02                     1_GWF-SFR-(206)-inflow
 Model                             13          1 -1.23668741E-07       *                     1_GWF-(3,1930)
 Package                           13             2.01820507E-02                     1_GWF-SFR-(217)-inflow
 Model                             14          1 -1.29385853E-08       *                     1_GWF-(1,3126)
 Package                           14             6.82894270E-02                     1_GWF-SFR-(206)-inflow
 Model                             15          1  1.77822699E-08       *                       1_GWF-(3,22)
 Package                           15             8.41635778E-03       *             1_GWF-SFR-(206)-inflow
 ----------------------------------------------------------------------------------------------------------


 15 CALLS TO NUMERICAL SOLUTION IN TIME STEP 1 STRESS PERIOD 2
 15 TOTAL ITERATIONS

 OUTER ITERATION SUMMARY
 ----------------------------------------------------------------------------------------------------------
                                OUTER      INNER                    STEP   MAXIMUM CHANGE MODEL-(CELLID) OR
 OUTER ITERATION STEP       ITERATION  ITERATION  MAXIMUM CHANGE SUCCESS             MODEL-PACKAGE-(NUMBER)
 ----------------------------------------------------------------------------------------------------------
 Model                              1          1 -2.53711221E-08       *                     1_GWF-(1,2869)
 Package                            1                 -26210681.                     1_GWF-SFR-(206)-inflow
 Model                              2          1 -2.72795830E-08       *                     1_GWF-(2,3022)
 Package                            2             5.02476360E-03       *             1_GWF-SFR-(206)-inflow
 ----------------------------------------------------------------------------------------------------------


 2 CALLS TO NUMERICAL SOLUTION IN TIME STEP 2 STRESS PERIOD 2
 2 TOTAL ITERATIONS

 OUTER ITERATION SUMMARY
 ----------------------------------------------------------------------------------------------------------
                                OUTER      INNER                    STEP   MAXIMUM CHANGE MODEL-(CELLID) OR
 OUTER ITERATION STEP       ITERATION  ITERATION  MAXIMUM CHANGE SUCCESS             MODEL-PACKAGE-(NUMBER)
 ----------------------------------------------------------------------------------------------------------
 Model                              1          1 -1.23528423E-08       *                     1_GWF-(1,3126)
 Package                            1                 -26210680.                     1_GWF-SFR-(206)-inflow
 Model                              2          1 -3.01638181E-08       *                     1_GWF-(2,3022)
 Package                            2             9.26573436E-03       *             1_GWF-SFR-(206)-inflow
 ----------------------------------------------------------------------------------------------------------


 2 CALLS TO NUMERICAL SOLUTION IN TIME STEP 3 STRESS PERIOD 2
 2 TOTAL ITERATIONS

 OUTER ITERATION SUMMARY
 ----------------------------------------------------------------------------------------------------------
                                OUTER      INNER                    STEP   MAXIMUM CHANGE MODEL-(CELLID) OR
 OUTER ITERATION STEP       ITERATION  ITERATION  MAXIMUM CHANGE SUCCESS             MODEL-PACKAGE-(NUMBER)
 ----------------------------------------------------------------------------------------------------------
 Model                              1          1 -8.30141289E-09       *                     1_GWF-(1,3126)
 Package                            1                 -26210680.                     1_GWF-SFR-(206)-inflow
 Model                              2          1 -6.50002505E-08       *                     1_GWF-(3,3131)
 Package                            2             5.92572763E-03       *             1_GWF-SFR-(206)-inflow
 ----------------------------------------------------------------------------------------------------------


 2 CALLS TO NUMERICAL SOLUTION IN TIME STEP 4 STRESS PERIOD 2
 2 TOTAL ITERATIONS

 OUTER ITERATION SUMMARY
 ----------------------------------------------------------------------------------------------------------
                                OUTER      INNER                    STEP   MAXIMUM CHANGE MODEL-(CELLID) OR
 OUTER ITERATION STEP       ITERATION  ITERATION  MAXIMUM CHANGE SUCCESS             MODEL-PACKAGE-(NUMBER)
 ----------------------------------------------------------------------------------------------------------
 Model                              1          1 -6.82751988E-09       *                     1_GWF-(1,3126)
 Package                            1                 -26210680.                     1_GWF-SFR-(206)-inflow
 Model                              2          1 -5.68880409E-09       *                     1_GWF-(2,2576)
 Package                            2             4.53625571E-03       *             1_GWF-SFR-(206)-inflow
 ----------------------------------------------------------------------------------------------------------


 2 CALLS TO NUMERICAL SOLUTION IN TIME STEP 5 STRESS PERIOD 2
 2 TOTAL ITERATIONS

 OUTER ITERATION SUMMARY
 ----------------------------------------------------------------------------------------------------------
                                OUTER      INNER                    STEP   MAXIMUM CHANGE MODEL-(CELLID) OR
 OUTER ITERATION STEP       ITERATION  ITERATION  MAXIMUM CHANGE SUCCESS             MODEL-PACKAGE-(NUMBER)
 ----------------------------------------------------------------------------------------------------------
 Model                              1          1 -3.01918135E-09       *                     1_GWF-(2,3063)
 Package                            1                 -26210680.                     1_GWF-SFR-(206)-inflow
 Model                              2          1 -4.75515094E-09       *                     1_GWF-(3,1937)
 Package                            2            -4.13929445E-04       *             1_GWF-SFR-(206)-inflow
 ----------------------------------------------------------------------------------------------------------


 2 CALLS TO NUMERICAL SOLUTION IN TIME STEP 6 STRESS PERIOD 2
 2 TOTAL ITERATIONS

 OUTER ITERATION SUMMARY
 ----------------------------------------------------------------------------------------------------------
                                OUTER      INNER                    STEP   MAXIMUM CHANGE MODEL-(CELLID) OR
 OUTER ITERATION STEP       ITERATION  ITERATION  MAXIMUM CHANGE SUCCESS             MODEL-PACKAGE-(NUMBER)
 ----------------------------------------------------------------------------------------------------------
 Model                              1          1 -2.36545361E-09       *                     1_GWF-(2,3063)
 Package                            1                 -26210680.                     1_GWF-SFR-(206)-inflow
 Model                              2          1 -5.30855004E-09       *                     1_GWF-(3,1862)
 Package                            2             2.75656829E-04       *             1_GWF-SFR-(217)-inflow
 ----------------------------------------------------------------------------------------------------------


 2 CALLS TO NUMERICAL SOLUTION IN TIME STEP 7 STRESS PERIOD 2
 2 TOTAL ITERATIONS

 OUTER ITERATION SUMMARY
 ----------------------------------------------------------------------------------------------------------
                                OUTER      INNER                    STEP   MAXIMUM CHANGE MODEL-(CELLID) OR
 OUTER ITERATION STEP       ITERATION  ITERATION  MAXIMUM CHANGE SUCCESS             MODEL-PACKAGE-(NUMBER)
 ----------------------------------------------------------------------------------------------------------
 Model                              1          1 -1.73210424E-09       *                     1_GWF-(2,3063)
 Package                            1                 -26210680.                     1_GWF-SFR-(206)-inflow
 Model                              2          1 -1.01929913E-08       *                     1_GWF-(3,2404)
 Package                            2             5.73007345E-04       *             1_GWF-SFR-(206)-inflow
 ----------------------------------------------------------------------------------------------------------


 2 CALLS TO NUMERICAL SOLUTION IN TIME STEP 8 STRESS PERIOD 2
 2 TOTAL ITERATIONS

 OUTER ITERATION SUMMARY
 ----------------------------------------------------------------------------------------------------------
                                OUTER      INNER                    STEP   MAXIMUM CHANGE MODEL-(CELLID) OR
 OUTER ITERATION STEP       ITERATION  ITERATION  MAXIMUM CHANGE SUCCESS             MODEL-PACKAGE-(NUMBER)
 ----------------------------------------------------------------------------------------------------------
 Model                              1          1 -9.07562026E-10       *                     1_GWF-(1,2623)
 Package                            1                 -26210680.                     1_GWF-SFR-(206)-inflow
 Model                              2          1 -1.92039806E-09       *                     1_GWF-(3,3124)
 Package                            2             1.06339953E-03       *             1_GWF-SFR-(206)-inflow
 ----------------------------------------------------------------------------------------------------------


 2 CALLS TO NUMERICAL SOLUTION IN TIME STEP 9 STRESS PERIOD 2
 2 TOTAL ITERATIONS

 OUTER ITERATION SUMMARY
 ----------------------------------------------------------------------------------------------------------
                                OUTER      INNER                    STEP   MAXIMUM CHANGE MODEL-(CELLID) OR
 OUTER ITERATION STEP       ITERATION  ITERATION  MAXIMUM CHANGE SUCCESS             MODEL-PACKAGE-(NUMBER)
 ----------------------------------------------------------------------------------------------------------
 Model                              1          1 -8.25366442E-10       *                     1_GWF-(3,2488)
 Package                            1                 -26210680.                     1_GWF-SFR-(206)-inflow
 Model                              2          1 -1.93136884E-09       *                     1_GWF-(3,2312)
 Package                            2            -1.66172478E-05       *             1_GWF-SFR-(257)-inflow
 ----------------------------------------------------------------------------------------------------------


 2 CALLS TO NUMERICAL SOLUTION IN TIME STEP 10 STRESS PERIOD 2
 2 TOTAL ITERATIONS

 OUTER ITERATION SUMMARY
 ----------------------------------------------------------------------------------------------------------
                                OUTER      INNER                    STEP   MAXIMUM CHANGE MODEL-(CELLID) OR
 OUTER ITERATION STEP       ITERATION  ITERATION  MAXIMUM CHANGE SUCCESS             MODEL-PACKAGE-(NUMBER)
 ----------------------------------------------------------------------------------------------------------
 Model                              1          1 -4.73562523E-10       *                     1_GWF-(3,3124)
 Package                            1                 -26210680.                     1_GWF-SFR-(206)-inflow
 Model                              2          1 -1.00925490E-09       *                     1_GWF-(3,3132)
 Package                            2             9.84191838E-05       *             1_GWF-SFR-(217)-inflow
 ----------------------------------------------------------------------------------------------------------


 2 CALLS TO NUMERICAL SOLUTION IN TIME STEP 11 STRESS PERIOD 2
 2 TOTAL ITERATIONS

 OUTER ITERATION SUMMARY
 ----------------------------------------------------------------------------------------------------------
                                OUTER      INNER                    STEP   MAXIMUM CHANGE MODEL-(CELLID) OR
 OUTER ITERATION STEP       ITERATION  ITERATION  MAXIMUM CHANGE SUCCESS             MODEL-PACKAGE-(NUMBER)
 ----------------------------------------------------------------------------------------------------------
 Model                              1          1 -3.95914412E-10       *                     1_GWF-(3,2488)
 Package                            1                 -26210680.                     1_GWF-SFR-(206)-inflow
 Model                              2          1 -1.05345066E-09       *                     1_GWF-(3,2312)
 Package                            2             7.70602734E-05       *             1_GWF-SFR-(206)-inflow
 ----------------------------------------------------------------------------------------------------------


 2 CALLS TO NUMERICAL SOLUTION IN TIME STEP 12 STRESS PERIOD 2
 2 TOTAL ITERATIONS

 OUTER ITERATION SUMMARY
 ----------------------------------------------------------------------------------------------------------
                                OUTER      INNER                    STEP   MAXIMUM CHANGE MODEL-(CELLID) OR
 OUTER ITERATION STEP       ITERATION  ITERATION  MAXIMUM CHANGE SUCCESS             MODEL-PACKAGE-(NUMBER)
 ----------------------------------------------------------------------------------------------------------
 Model                              1          1 -2.09752216E-10       *                     1_GWF-(3,3124)
 Package                            1                 -26210680.                     1_GWF-SFR-(206)-inflow
 Model                              2          1 -7.51043672E-10       *                     1_GWF-(3,3132)
 Package                            2             9.70572468E-05       *             1_GWF-SFR-(206)-inflow
 ----------------------------------------------------------------------------------------------------------


 2 CALLS TO NUMERICAL SOLUTION IN TIME STEP 13 STRESS PERIOD 2
 2 TOTAL ITERATIONS

 OUTER ITERATION SUMMARY
 ----------------------------------------------------------------------------------------------------------
                                OUTER      INNER                    STEP   MAXIMUM CHANGE MODEL-(CELLID) OR
 OUTER ITERATION STEP       ITERATION  ITERATION  MAXIMUM CHANGE SUCCESS             MODEL-PACKAGE-(NUMBER)
 ----------------------------------------------------------------------------------------------------------
 Model                              1          1 -2.77594836E-10       *                     1_GWF-(3,2488)
 Package                            1                 -26210680.                     1_GWF-SFR-(206)-inflow
 Model                              2          1 -6.13567863E-10       *                     1_GWF-(3,2404)
 Package                            2             7.58968132E-05       *             1_GWF-SFR-(206)-inflow
 ----------------------------------------------------------------------------------------------------------


 2 CALLS TO NUMERICAL SOLUTION IN TIME STEP 14 STRESS PERIOD 2
 2 TOTAL ITERATIONS

 OUTER ITERATION SUMMARY
 ----------------------------------------------------------------------------------------------------------
                                OUTER      INNER                    STEP   MAXIMUM CHANGE MODEL-(CELLID) OR
 OUTER ITERATION STEP       ITERATION  ITERATION  MAXIMUM CHANGE SUCCESS             MODEL-PACKAGE-(NUMBER)
 ----------------------------------------------------------------------------------------------------------
 Model                              1          1 -1.37987399E-10       *                     1_GWF-(3,3124)
 Package                            1                 -26210680.                     1_GWF-SFR-(206)-inflow
 Model                              2          1 -2.48576271E-10       *                     1_GWF-(3,3131)
 Package                            2             8.76452326E-05       *             1_GWF-SFR-(206)-inflow
 ----------------------------------------------------------------------------------------------------------


 2 CALLS TO NUMERICAL SOLUTION IN TIME STEP 15 STRESS PERIOD 2
 2 TOTAL ITERATIONS

 OUTER ITERATION SUMMARY
 ----------------------------------------------------------------------------------------------------------
                                OUTER      INNER                    STEP   MAXIMUM CHANGE MODEL-(CELLID) OR
 OUTER ITERATION STEP       ITERATION  ITERATION  MAXIMUM CHANGE SUCCESS             MODEL-PACKAGE-(NUMBER)
 ----------------------------------------------------------------------------------------------------------
 Model                              1          1 -8.64872618E-11       *                     1_GWF-(3,2488)
 Package                            1                 -26210680.                     1_GWF-SFR-(206)-inflow
 Model                              2          1 -3.41202622E-10       *                     1_GWF-(3,2312)
 Package                            2             5.19352224E-05       *             1_GWF-SFR-(206)-inflow
 ----------------------------------------------------------------------------------------------------------


 2 CALLS TO NUMERICAL SOLUTION IN TIME STEP 16 STRESS PERIOD 2
 2 TOTAL ITERATIONS

 OUTER ITERATION SUMMARY
 ----------------------------------------------------------------------------------------------------------
                                OUTER      INNER                    STEP   MAXIMUM CHANGE MODEL-(CELLID) OR
 OUTER ITERATION STEP       ITERATION  ITERATION  MAXIMUM CHANGE SUCCESS             MODEL-PACKAGE-(NUMBER)
 ----------------------------------------------------------------------------------------------------------
 Model                              1          1 -6.23288088E-11       *                     1_GWF-(2,2645)
 Package                            1                 -26210680.                     1_GWF-SFR-(206)-inflow
 Model                              2          1 -3.28526539E-10       *                      1_GWF-(3,748)
 Package                            2             4.15557657E-05       *             1_GWF-SFR-(206)-inflow
 ----------------------------------------------------------------------------------------------------------


 2 CALLS TO NUMERICAL SOLUTION IN TIME STEP 17 STRESS PERIOD 2
 2 TOTAL ITERATIONS

 OUTER ITERATION SUMMARY
 ----------------------------------------------------------------------------------------------------------
                                OUTER      INNER                    STEP   MAXIMUM CHANGE MODEL-(CELLID) OR
 OUTER ITERATION STEP       ITERATION  ITERATION  MAXIMUM CHANGE SUCCESS             MODEL-PACKAGE-(NUMBER)
 ----------------------------------------------------------------------------------------------------------
 Model                              1          1 -1.04762421E-10       *                     1_GWF-(3,2488)
 Package                            1                 -26210680.                     1_GWF-SFR-(206)-inflow
 Model                              2          1 -1.48673962E-10       *                     1_GWF-(3,2405)
 Package                            2             3.04270153E-05       *             1_GWF-SFR-(206)-inflow
 ----------------------------------------------------------------------------------------------------------


 2 CALLS TO NUMERICAL SOLUTION IN TIME STEP 18 STRESS PERIOD 2
 2 TOTAL ITERATIONS

 OUTER ITERATION SUMMARY
 ----------------------------------------------------------------------------------------------------------
                                OUTER      INNER                    STEP   MAXIMUM CHANGE MODEL-(CELLID) OR
 OUTER ITERATION STEP       ITERATION  ITERATION  MAXIMUM CHANGE SUCCESS             MODEL-PACKAGE-(NUMBER)
 ----------------------------------------------------------------------------------------------------------
 Model                              1          1 -4.26894076E-11       *                     1_GWF-(2,2645)
 Package                            1                 -26210680.                     1_GWF-SFR-(206)-inflow
 Model                              2          1 -3.91366939E-11       *                     1_GWF-(2,2719)
 Package                            2             3.42746543E-05       *             1_GWF-SFR-(206)-inflow
 ----------------------------------------------------------------------------------------------------------


 2 CALLS TO NUMERICAL SOLUTION IN TIME STEP 19 STRESS PERIOD 2
 2 TOTAL ITERATIONS

 OUTER ITERATION SUMMARY
 ----------------------------------------------------------------------------------------------------------
                                OUTER      INNER                    STEP   MAXIMUM CHANGE MODEL-(CELLID) OR
 OUTER ITERATION STEP       ITERATION  ITERATION  MAXIMUM CHANGE SUCCESS             MODEL-PACKAGE-(NUMBER)
 ----------------------------------------------------------------------------------------------------------
 Model                              1          1 -3.08375547E-11       *                     1_GWF-(2,2645)
 Package                            1                 -26210680.                     1_GWF-SFR-(206)-inflow
 Model                              2          1 -3.45892204E-11       *                     1_GWF-(2,2719)
 Package                            2             2.30036329E-05       *             1_GWF-SFR-(206)-inflow
 ----------------------------------------------------------------------------------------------------------


 2 CALLS TO NUMERICAL SOLUTION IN TIME STEP 20 STRESS PERIOD 2
 2 TOTAL ITERATIONS

 OUTER ITERATION SUMMARY
 ----------------------------------------------------------------------------------------------------------
                                OUTER      INNER                    STEP   MAXIMUM CHANGE MODEL-(CELLID) OR
 OUTER ITERATION STEP       ITERATION  ITERATION  MAXIMUM CHANGE SUCCESS             MODEL-PACKAGE-(NUMBER)
 ----------------------------------------------------------------------------------------------------------
 Model                              1          1 -2.56363819E-11       *                     1_GWF-(2,2645)
 Package                            1                 -26210680.                     1_GWF-SFR-(206)-inflow
 Model                              2          1 -2.91890956E-11       *                     1_GWF-(2,2719)
 Package                            2             1.94658285E-05       *             1_GWF-SFR-(206)-inflow
 ----------------------------------------------------------------------------------------------------------


 2 CALLS TO NUMERICAL SOLUTION IN TIME STEP 21 STRESS PERIOD 2
 2 TOTAL ITERATIONS

 OUTER ITERATION SUMMARY
 ----------------------------------------------------------------------------------------------------------
                                OUTER      INNER                    STEP   MAXIMUM CHANGE MODEL-(CELLID) OR
 OUTER ITERATION STEP       ITERATION  ITERATION  MAXIMUM CHANGE SUCCESS             MODEL-PACKAGE-(NUMBER)
 ----------------------------------------------------------------------------------------------------------
 Model                              1          1 -2.12878604E-11       *                     1_GWF-(2,2645)
 Package                            1                 -26210680.                     1_GWF-SFR-(206)-inflow
 Model                              2          1 -2.37037057E-11       *                     1_GWF-(2,3063)
 Package                            2             1.71705237E-05       *             1_GWF-SFR-(206)-inflow
 ----------------------------------------------------------------------------------------------------------


 2 CALLS TO NUMERICAL SOLUTION IN TIME STEP 22 STRESS PERIOD 2
 2 TOTAL ITERATIONS

 OUTER ITERATION SUMMARY
 ----------------------------------------------------------------------------------------------------------
                                OUTER      INNER                    STEP   MAXIMUM CHANGE MODEL-(CELLID) OR
 OUTER ITERATION STEP       ITERATION  ITERATION  MAXIMUM CHANGE SUCCESS             MODEL-PACKAGE-(NUMBER)
 ----------------------------------------------------------------------------------------------------------
 Model                              1          1 -1.83035809E-11       *                     1_GWF-(2,2645)
 Package                            1                 -26210680.                     1_GWF-SFR-(206)-inflow
 Model                              2          1 -1.83888460E-11       *                     1_GWF-(2,3063)
 Package                            2             1.50396209E-05       *             1_GWF-SFR-(206)-inflow
 ----------------------------------------------------------------------------------------------------------


 2 CALLS TO NUMERICAL SOLUTION IN TIME STEP 23 STRESS PERIOD 2
 2 TOTAL ITERATIONS

 OUTER ITERATION SUMMARY
 ----------------------------------------------------------------------------------------------------------
                                OUTER      INNER                    STEP   MAXIMUM CHANGE MODEL-(CELLID) OR
 OUTER ITERATION STEP       ITERATION  ITERATION  MAXIMUM CHANGE SUCCESS             MODEL-PACKAGE-(NUMBER)
 ----------------------------------------------------------------------------------------------------------
 Model                              1          1 -1.58024704E-11       *                     1_GWF-(2,2645)
 Package                            1                 -26210680.                     1_GWF-SFR-(206)-inflow
 Model                              2          1 -1.40687462E-11       *                     1_GWF-(2,3063)
 Package                            2             1.30035655E-05       *             1_GWF-SFR-(206)-inflow
 ----------------------------------------------------------------------------------------------------------


 2 CALLS TO NUMERICAL SOLUTION IN TIME STEP 24 STRESS PERIOD 2
 2 TOTAL ITERATIONS

 OUTER ITERATION SUMMARY
 ----------------------------------------------------------------------------------------------------------
                                OUTER      INNER                    STEP   MAXIMUM CHANGE MODEL-(CELLID) OR
 OUTER ITERATION STEP       ITERATION  ITERATION  MAXIMUM CHANGE SUCCESS             MODEL-PACKAGE-(NUMBER)
 ----------------------------------------------------------------------------------------------------------
 Model                              1          1 -1.25623956E-11       *                     1_GWF-(2,2645)
 Package                            1                 -26210680.                     1_GWF-SFR-(206)-inflow
 Model                              2          1 -1.02886588E-11       *                     1_GWF-(2,2797)
 Package                            2             9.95896698E-06       *             1_GWF-SFR-(206)-inflow
 ----------------------------------------------------------------------------------------------------------


 2 CALLS TO NUMERICAL SOLUTION IN TIME STEP 25 STRESS PERIOD 2
 2 TOTAL ITERATIONS

 OUTER ITERATION SUMMARY
 ----------------------------------------------------------------------------------------------------------
                                OUTER      INNER                    STEP   MAXIMUM CHANGE MODEL-(CELLID) OR
 OUTER ITERATION STEP       ITERATION  ITERATION  MAXIMUM CHANGE SUCCESS             MODEL-PACKAGE-(NUMBER)
 ----------------------------------------------------------------------------------------------------------
 Model                              1          1 -9.12336873E-12       *                     1_GWF-(2,2645)
 Package                            1                 -26210680.                     1_GWF-SFR-(206)-inflow
 Model                              2          1 -7.19069249E-12       *                     1_GWF-(2,2012)
 Package                            2             7.09773996E-06       *             1_GWF-SFR-(206)-inflow
 ----------------------------------------------------------------------------------------------------------


 2 CALLS TO NUMERICAL SOLUTION IN TIME STEP 26 STRESS PERIOD 2
 2 TOTAL ITERATIONS

 OUTER ITERATION SUMMARY
 ----------------------------------------------------------------------------------------------------------
                                OUTER      INNER                    STEP   MAXIMUM CHANGE MODEL-(CELLID) OR
 OUTER ITERATION STEP       ITERATION  ITERATION  MAXIMUM CHANGE SUCCESS             MODEL-PACKAGE-(NUMBER)
 ----------------------------------------------------------------------------------------------------------
 Model                              1          1 -6.53699317E-12       *                     1_GWF-(2,2645)
 Package                            1                 -26210680.                     1_GWF-SFR-(206)-inflow
 Model                              2          1 -5.48538992E-12       *                     1_GWF-(3,2079)
 Package                            2             5.40629636E-06       *             1_GWF-SFR-(206)-inflow
 ----------------------------------------------------------------------------------------------------------


 2 CALLS TO NUMERICAL SOLUTION IN TIME STEP 27 STRESS PERIOD 2
 2 TOTAL ITERATIONS

 OUTER ITERATION SUMMARY
 ----------------------------------------------------------------------------------------------------------
                                OUTER      INNER                    STEP   MAXIMUM CHANGE MODEL-(CELLID) OR
 OUTER ITERATION STEP       ITERATION  ITERATION  MAXIMUM CHANGE SUCCESS             MODEL-PACKAGE-(NUMBER)
 ----------------------------------------------------------------------------------------------------------
 Model                              1          1 -4.94537744E-12       *                     1_GWF-(3,2010)
 Package                            1                 -26210680.                     1_GWF-SFR-(206)-inflow
 Model                              2          1 -4.43378667E-12       *                     1_GWF-(3,2221)
 Package                            2             3.89506264E-06       *             1_GWF-SFR-(206)-inflow
 ----------------------------------------------------------------------------------------------------------


 2 CALLS TO NUMERICAL SOLUTION IN TIME STEP 28 STRESS PERIOD 2
 2 TOTAL ITERATIONS

 OUTER ITERATION SUMMARY
 ----------------------------------------------------------------------------------------------------------
                                OUTER      INNER                    STEP   MAXIMUM CHANGE MODEL-(CELLID) OR
 OUTER ITERATION STEP       ITERATION  ITERATION  MAXIMUM CHANGE SUCCESS             MODEL-PACKAGE-(NUMBER)
 ----------------------------------------------------------------------------------------------------------
 Model                              1          1 -4.09272616E-12       *                     1_GWF-(3,1936)
 Package                            1                 -26210680.                     1_GWF-SFR-(206)-inflow
 Model                              2          1 -3.69482223E-12       *                     1_GWF-(3,2152)
 Package                            2             3.35443301E-06       *             1_GWF-SFR-(206)-inflow
 ----------------------------------------------------------------------------------------------------------


 2 CALLS TO NUMERICAL SOLUTION IN TIME STEP 29 STRESS PERIOD 2
 2 TOTAL ITERATIONS

 OUTER ITERATION SUMMARY
 ----------------------------------------------------------------------------------------------------------
                                OUTER      INNER                    STEP   MAXIMUM CHANGE MODEL-(CELLID) OR
 OUTER ITERATION STEP       ITERATION  ITERATION  MAXIMUM CHANGE SUCCESS             MODEL-PACKAGE-(NUMBER)
 ----------------------------------------------------------------------------------------------------------
 Model                              1          1 -3.41060513E-12       *                     1_GWF-(3,1938)
 Package                            1                 -26210680.                     1_GWF-SFR-(206)-inflow
 Model                              2          1 -3.18323146E-12       *                     1_GWF-(3,1699)
 Package                            2             2.84858072E-06       *             1_GWF-SFR-(206)-inflow
 ----------------------------------------------------------------------------------------------------------


 2 CALLS TO NUMERICAL SOLUTION IN TIME STEP 30 STRESS PERIOD 2
 2 TOTAL ITERATIONS

 OUTER ITERATION SUMMARY
 ----------------------------------------------------------------------------------------------------------
                                OUTER      INNER                    STEP   MAXIMUM CHANGE MODEL-(CELLID) OR
 OUTER ITERATION STEP       ITERATION  ITERATION  MAXIMUM CHANGE SUCCESS             MODEL-PACKAGE-(NUMBER)
 ----------------------------------------------------------------------------------------------------------
 Model                              1          1 -2.95585778E-12       *                     1_GWF-(3,2146)
 Package                            1                 -26210680.                     1_GWF-SFR-(206)-inflow
 Model                              2          1 -2.72848411E-12       *                     1_GWF-(3,1855)
 Package                            2             2.37750577E-06       *             1_GWF-SFR-(206)-inflow
 ----------------------------------------------------------------------------------------------------------


 2 CALLS TO NUMERICAL SOLUTION IN TIME STEP 31 STRESS PERIOD 2
 2 TOTAL ITERATIONS

 OUTER ITERATION SUMMARY
 ----------------------------------------------------------------------------------------------------------
                                OUTER      INNER                    STEP   MAXIMUM CHANGE MODEL-(CELLID) OR
 OUTER ITERATION STEP       ITERATION  ITERATION  MAXIMUM CHANGE SUCCESS             MODEL-PACKAGE-(NUMBER)
 ----------------------------------------------------------------------------------------------------------
 Model                              1          1 -2.55795385E-12       *                     1_GWF-(3,1780)
 Package                            1                 -26210680.                     1_GWF-SFR-(206)-inflow
 Model                              2          1 -2.38742359E-12       *                     1_GWF-(3,2008)
 Package                            2             2.00127813E-06       *             1_GWF-SFR-(206)-inflow
 ----------------------------------------------------------------------------------------------------------


 2 CALLS TO NUMERICAL SOLUTION IN TIME STEP 32 STRESS PERIOD 2
 2 TOTAL ITERATIONS

 OUTER ITERATION SUMMARY
 ----------------------------------------------------------------------------------------------------------
                                OUTER      INNER                    STEP   MAXIMUM CHANGE MODEL-(CELLID) OR
 OUTER ITERATION STEP       ITERATION  ITERATION  MAXIMUM CHANGE SUCCESS             MODEL-PACKAGE-(NUMBER)
 ----------------------------------------------------------------------------------------------------------
 Model                              1          1 -2.21689334E-12       *                     1_GWF-(3,2216)
 Package                            1                 -26210680.                     1_GWF-SFR-(206)-inflow
 Model                              2          1 -2.07478479E-12       *                     1_GWF-(3,1408)
 Package                            2             1.79577563E-06       *             1_GWF-SFR-(206)-inflow
 ----------------------------------------------------------------------------------------------------------


 2 CALLS TO NUMERICAL SOLUTION IN TIME STEP 33 STRESS PERIOD 2
 2 TOTAL ITERATIONS

 OUTER ITERATION SUMMARY
 ----------------------------------------------------------------------------------------------------------
                                OUTER      INNER                    STEP   MAXIMUM CHANGE MODEL-(CELLID) OR
 OUTER ITERATION STEP       ITERATION  ITERATION  MAXIMUM CHANGE SUCCESS             MODEL-PACKAGE-(NUMBER)
 ----------------------------------------------------------------------------------------------------------
 Model                              1          1 -2.01794137E-12       *                     1_GWF-(3,1782)
 Package                            1                 -26210680.                     1_GWF-SFR-(206)-inflow
 Model                              2          1 -1.87583282E-12       *                     1_GWF-(3,1855)
 Package                            2             1.70408991E-06       *             1_GWF-SFR-(206)-inflow
 ----------------------------------------------------------------------------------------------------------


 2 CALLS TO NUMERICAL SOLUTION IN TIME STEP 34 STRESS PERIOD 2
 2 TOTAL ITERATIONS

 OUTER ITERATION SUMMARY
 ----------------------------------------------------------------------------------------------------------
                                OUTER      INNER                    STEP   MAXIMUM CHANGE MODEL-(CELLID) OR
 OUTER ITERATION STEP       ITERATION  ITERATION  MAXIMUM CHANGE SUCCESS             MODEL-PACKAGE-(NUMBER)
 ----------------------------------------------------------------------------------------------------------
 Model                              1          1 -1.73372428E-12       *                     1_GWF-(3,2076)
 Package                            1                 -26210680.                     1_GWF-SFR-(206)-inflow
 Model                              2          1 -1.67688086E-12       *                     1_GWF-(3,2007)
 Package                            2             1.49226426E-06       *             1_GWF-SFR-(206)-inflow
 ----------------------------------------------------------------------------------------------------------


 2 CALLS TO NUMERICAL SOLUTION IN TIME STEP 35 STRESS PERIOD 2
 2 TOTAL ITERATIONS

 OUTER ITERATION SUMMARY
 ----------------------------------------------------------------------------------------------------------
                                OUTER      INNER                    STEP   MAXIMUM CHANGE MODEL-(CELLID) OR
 OUTER ITERATION STEP       ITERATION  ITERATION  MAXIMUM CHANGE SUCCESS             MODEL-PACKAGE-(NUMBER)
 ----------------------------------------------------------------------------------------------------------
 Model                              1          1 -1.59161573E-12       *                     1_GWF-(3,1696)
 Package                            1                 -26210680.                     1_GWF-SFR-(206)-inflow
 Model                              2          1 -1.50635060E-12       *                     1_GWF-(3,1860)
 Package                            2             1.31521596E-06       *             1_GWF-SFR-(206)-inflow
 ----------------------------------------------------------------------------------------------------------


 2 CALLS TO NUMERICAL SOLUTION IN TIME STEP 36 STRESS PERIOD 2
 2 TOTAL ITERATIONS

 OUTER ITERATION SUMMARY
 ----------------------------------------------------------------------------------------------------------
                                OUTER      INNER                    STEP   MAXIMUM CHANGE MODEL-(CELLID) OR
 OUTER ITERATION STEP       ITERATION  ITERATION  MAXIMUM CHANGE SUCCESS             MODEL-PACKAGE-(NUMBER)
 ----------------------------------------------------------------------------------------------------------
 Model                              1          1 -1.42108547E-12       *                     1_GWF-(3,2148)
 Package                            1                 -26210680.                     1_GWF-SFR-(206)-inflow
 Model                              2          1 -1.39266376E-12       *                     1_GWF-(3,1860)
 Package                            2             1.29624650E-06       *             1_GWF-SFR-(206)-inflow
 ----------------------------------------------------------------------------------------------------------


 2 CALLS TO NUMERICAL SOLUTION IN TIME STEP 37 STRESS PERIOD 2
 2 TOTAL ITERATIONS

 OUTER ITERATION SUMMARY
 ----------------------------------------------------------------------------------------------------------
                                OUTER      INNER                    STEP   MAXIMUM CHANGE MODEL-(CELLID) OR
 OUTER ITERATION STEP       ITERATION  ITERATION  MAXIMUM CHANGE SUCCESS             MODEL-PACKAGE-(NUMBER)
 ----------------------------------------------------------------------------------------------------------
 Model                              1          1 -1.30739863E-12       *                     1_GWF-(3,2310)
 Package                            1                 -26210680.                     1_GWF-SFR-(206)-inflow
 Model                              2          1 -1.27897692E-12       *                     1_GWF-(3,2217)
 Package                            2             1.00538143E-06       *             1_GWF-SFR-(206)-inflow
 ----------------------------------------------------------------------------------------------------------


 2 CALLS TO NUMERICAL SOLUTION IN TIME STEP 38 STRESS PERIOD 2
 2 TOTAL ITERATIONS

 OUTER ITERATION SUMMARY
 ----------------------------------------------------------------------------------------------------------
                                OUTER      INNER                    STEP   MAXIMUM CHANGE MODEL-(CELLID) OR
 OUTER ITERATION STEP       ITERATION  ITERATION  MAXIMUM CHANGE SUCCESS             MODEL-PACKAGE-(NUMBER)
 ----------------------------------------------------------------------------------------------------------
 Model                              1          1 -1.22213351E-12       *                     1_GWF-(3,2006)
 Package                            1                 -26210680.                     1_GWF-SFR-(206)-inflow
 Model                              2          1 -1.16529009E-12       *                     1_GWF-(3,2079)
 Package                            2             8.91564663E-07       *             1_GWF-SFR-(206)-inflow
 ----------------------------------------------------------------------------------------------------------


 2 CALLS TO NUMERICAL SOLUTION IN TIME STEP 39 STRESS PERIOD 2
 2 TOTAL ITERATIONS

 OUTER ITERATION SUMMARY
 ----------------------------------------------------------------------------------------------------------
                                OUTER      INNER                    STEP   MAXIMUM CHANGE MODEL-(CELLID) OR
 OUTER ITERATION STEP       ITERATION  ITERATION  MAXIMUM CHANGE SUCCESS             MODEL-PACKAGE-(NUMBER)
 ----------------------------------------------------------------------------------------------------------
 Model                              1          1 -1.13686838E-12       *                     1_GWF-(3,1937)
 Package                            1                 -26210680.                     1_GWF-SFR-(206)-inflow
 Model                              2          1 -1.08002496E-12       *                     1_GWF-(3,2076)
 Package                            2             9.95896698E-07       *             1_GWF-SFR-(206)-inflow
 ----------------------------------------------------------------------------------------------------------


 2 CALLS TO NUMERICAL SOLUTION IN TIME STEP 40 STRESS PERIOD 2
 2 TOTAL ITERATIONS

 OUTER ITERATION SUMMARY
 ----------------------------------------------------------------------------------------------------------
                                OUTER      INNER                    STEP   MAXIMUM CHANGE MODEL-(CELLID) OR
 OUTER ITERATION STEP       ITERATION  ITERATION  MAXIMUM CHANGE SUCCESS             MODEL-PACKAGE-(NUMBER)
 ----------------------------------------------------------------------------------------------------------
 Model                              1          1 -1.05160325E-12       *                     1_GWF-(3,2311)
 Package                            1                 -26210680.                     1_GWF-SFR-(206)-inflow
 Model                              2          1 -9.94759830E-13       *                     1_GWF-(3,2011)
 Package                            2             8.40979434E-07       *             1_GWF-SFR-(206)-inflow
 ----------------------------------------------------------------------------------------------------------


 2 CALLS TO NUMERICAL SOLUTION IN TIME STEP 41 STRESS PERIOD 2
 2 TOTAL ITERATIONS

 OUTER ITERATION SUMMARY
 ----------------------------------------------------------------------------------------------------------
                                OUTER      INNER                    STEP   MAXIMUM CHANGE MODEL-(CELLID) OR
 OUTER ITERATION STEP       ITERATION  ITERATION  MAXIMUM CHANGE SUCCESS             MODEL-PACKAGE-(NUMBER)
 ----------------------------------------------------------------------------------------------------------
 Model                              1          1 -9.66338121E-13       *                     1_GWF-(3,2488)
 Package                            1                 -26210680.                     1_GWF-SFR-(206)-inflow
 Model                              2          1 -9.37916411E-13       *                     1_GWF-(3,1862)
 Package                            2             8.09363666E-07       *             1_GWF-SFR-(206)-inflow
 ----------------------------------------------------------------------------------------------------------


 2 CALLS TO NUMERICAL SOLUTION IN TIME STEP 42 STRESS PERIOD 2
 2 TOTAL ITERATIONS

 OUTER ITERATION SUMMARY
 ----------------------------------------------------------------------------------------------------------
                                OUTER      INNER                    STEP   MAXIMUM CHANGE MODEL-(CELLID) OR
 OUTER ITERATION STEP       ITERATION  ITERATION  MAXIMUM CHANGE SUCCESS             MODEL-PACKAGE-(NUMBER)
 ----------------------------------------------------------------------------------------------------------
 Model                              1          1 -8.81072992E-13       *                     1_GWF-(3,2314)
 Package                            1                 -26210680.                     1_GWF-SFR-(206)-inflow
 Model                              2          1 -8.81072992E-13       *                     1_GWF-(3,2152)
 Package                            2             6.54446402E-07       *             1_GWF-SFR-(206)-inflow
 ----------------------------------------------------------------------------------------------------------


 2 CALLS TO NUMERICAL SOLUTION IN TIME STEP 43 STRESS PERIOD 2
 2 TOTAL ITERATIONS

 OUTER ITERATION SUMMARY
 ----------------------------------------------------------------------------------------------------------
                                OUTER      INNER                    STEP   MAXIMUM CHANGE MODEL-(CELLID) OR
 OUTER ITERATION STEP       ITERATION  ITERATION  MAXIMUM CHANGE SUCCESS             MODEL-PACKAGE-(NUMBER)
 ----------------------------------------------------------------------------------------------------------
 Model                              1          1 -8.52651283E-13       *                     1_GWF-(3,2148)
 Package                            1                 -26210680.                     1_GWF-SFR-(206)-inflow
 Model                              2          1 -8.24229573E-13       *                     1_GWF-(3,2220)
 Package                            2             6.70254286E-07       *             1_GWF-SFR-(206)-inflow
 ----------------------------------------------------------------------------------------------------------


 2 CALLS TO NUMERICAL SOLUTION IN TIME STEP 44 STRESS PERIOD 2
 2 TOTAL ITERATIONS

 OUTER ITERATION SUMMARY
 ----------------------------------------------------------------------------------------------------------
                                OUTER      INNER                    STEP   MAXIMUM CHANGE MODEL-(CELLID) OR
 OUTER ITERATION STEP       ITERATION  ITERATION  MAXIMUM CHANGE SUCCESS             MODEL-PACKAGE-(NUMBER)
 ----------------------------------------------------------------------------------------------------------
 Model                              1          1 -7.95807864E-13       *                     1_GWF-(3,2008)
 Package                            1                 -26210680.                     1_GWF-SFR-(206)-inflow
 Model                              2          1 -7.95807864E-13       *                     1_GWF-(3,1934)
 Package                            2             7.05031631E-07       *             1_GWF-SFR-(206)-inflow
 ----------------------------------------------------------------------------------------------------------


 2 CALLS TO NUMERICAL SOLUTION IN TIME STEP 45 STRESS PERIOD 2
 2 TOTAL ITERATIONS

 OUTER ITERATION SUMMARY
 ----------------------------------------------------------------------------------------------------------
                                OUTER      INNER                    STEP   MAXIMUM CHANGE MODEL-(CELLID) OR
 OUTER ITERATION STEP       ITERATION  ITERATION  MAXIMUM CHANGE SUCCESS             MODEL-PACKAGE-(NUMBER)
 ----------------------------------------------------------------------------------------------------------
 Model                              1          1 -7.38964445E-13       *                     1_GWF-(3,2405)
 Package                            1                 -26210680.                     1_GWF-SFR-(206)-inflow
 Model                              2          1 -7.38964445E-13       *                     1_GWF-(3,2217)
 Package                            2             5.56437520E-07       *             1_GWF-SFR-(206)-inflow
 ----------------------------------------------------------------------------------------------------------


 2 CALLS TO NUMERICAL SOLUTION IN TIME STEP 46 STRESS PERIOD 2
 2 TOTAL ITERATIONS

 OUTER ITERATION SUMMARY
 ----------------------------------------------------------------------------------------------------------
                                OUTER      INNER                    STEP   MAXIMUM CHANGE MODEL-(CELLID) OR
 OUTER ITERATION STEP       ITERATION  ITERATION  MAXIMUM CHANGE SUCCESS             MODEL-PACKAGE-(NUMBER)
 ----------------------------------------------------------------------------------------------------------
 Model                              1          1 -7.10542736E-13       *                     1_GWF-(3,2010)
 Package                            1                 -26210680.                     1_GWF-SFR-(206)-inflow
 Model                              2          1 -7.10542736E-13       *                     1_GWF-(3,1786)
 Package                            2             5.97538019E-07       *             1_GWF-SFR-(206)-inflow
 ----------------------------------------------------------------------------------------------------------


 2 CALLS TO NUMERICAL SOLUTION IN TIME STEP 47 STRESS PERIOD 2
 2 TOTAL ITERATIONS

 OUTER ITERATION SUMMARY
 ----------------------------------------------------------------------------------------------------------
                                OUTER      INNER                    STEP   MAXIMUM CHANGE MODEL-(CELLID) OR
 OUTER ITERATION STEP       ITERATION  ITERATION  MAXIMUM CHANGE SUCCESS             MODEL-PACKAGE-(NUMBER)
 ----------------------------------------------------------------------------------------------------------
 Model                              1          1 -6.82121026E-13       *                     1_GWF-(3,2078)
 Package                            1                 -26210680.                     1_GWF-SFR-(206)-inflow
 Model                              2          1 -6.53699317E-13       *                     1_GWF-(3,2409)
 Package                            2             6.29153787E-07       *             1_GWF-SFR-(206)-inflow
 ----------------------------------------------------------------------------------------------------------


 2 CALLS TO NUMERICAL SOLUTION IN TIME STEP 48 STRESS PERIOD 2
 2 TOTAL ITERATIONS

 MEMORY MANAGER TOTAL STORAGE BY DATA TYPE, IN MEGABYTES
 -------------------------------
                    ALLOCATED   
 DATA TYPE           MEMORY     
 -------------------------------
 Character        1.98730000E-02
 Logical          4.40000000E-05
 Integer          2.0229440     
 Real             4.8502000     
 -------------------------------
 Total            6.8930610     
 -------------------------------


 
 Run end date and time (yyyy/mm/dd hh:mm:ss): 2021/11/03 13:12:45
 Elapsed run time:  5.410 Seconds
 Normal termination of simulation.
