                                   MODFLOW 6
                U.S. GEOLOGICAL SURVEY MODULAR HYDROLOGIC MODEL
                            VERSION 6.2.1 02/18/2021

   MODFLOW 6 compiled Feb 18 2021 21:14:51 with IFORT compiler (ver. 19.10.3)

This software has been approved for release by the U.S. Geological 
Survey (USGS). Although the software has been subjected to rigorous 
review, the USGS reserves the right to update the software as needed 
pursuant to further analysis and review. No warranty, expressed or 
implied, is made by the USGS or the U.S. Government as to the 
functionality of the software and related material nor shall the 
fact of release constitute any such warranty. Furthermore, the 
software is released on condition that neither the USGS nor the U.S. 
Government shall be held liable for any damages resulting from its 
authorized or unauthorized use. Also refer to the USGS Water 
Resources Software User Rights Notice for complete use, copyright, 
and distribution information.


System command used to initiate simulation:
..\bins\win\mf6

MODFLOW was compiled using uniform precision.

Real Variables
  KIND: 8
  TINY (smallest non-zero value):    2.225074-308
  HUGE (largest value):    1.797693+308
  PRECISION: 15
  BIT SIZE: 64

Integer Variables
  KIND: 4
  HUGE (largest value): 2147483647
  BIT SIZE: 32

Long Integer Variables
  KIND: 8
  HUGE (largest value): 9223372036854775807
  BIT SIZE: 64

Logical Variables
  KIND: 4
  BIT SIZE: 32
 

 OPENED mfsim.nam
 FILE TYPE:NAM   UNIT 1001   STATUS:OLD                 
 FORMAT:FORMATTED              ACCESS:SEQUENTIAL          
 ACTION:READ                

 # File generated by Flopy version 3.3.5 on 11/04/2021 at 11:01:53.

 READING SIMULATION OPTIONS
 END OF SIMULATION OPTIONS

 READING SIMULATION TIMING

 OPENED experimental.tdis
 FILE TYPE:TDIS   UNIT 1002   STATUS:OLD                 
 FORMAT:FORMATTED              ACCESS:SEQUENTIAL          
 ACTION:READ                


 TDIS -- TEMPORAL DISCRETIZATION PACKAGE,
 VERSION 1 : 11/13/2014 - INPUT READ FROM UNIT 1002
 # File generated by Flopy version 3.3.5 on 11/04/2021 at 11:01:53.
 PROCESSING TDIS OPTIONS
    SIMULATION TIME UNIT IS DAYS
 END OF TDIS OPTIONS
 PROCESSING TDIS DIMENSIONS
    2 STRESS PERIOD(S) IN SIMULATION
 END OF TDIS DIMENSIONS
 PROCESSING TDIS PERIODDATA


 STRESS PERIOD     LENGTH       TIME STEPS     MULTIPLIER FOR DELT
 ----------------------------------------------------------------------------
        1         1.000000          1                    1.000
        2         1460.000         48                    1.000
 END OF TDIS PERIODDATA
 END OF SIMULATION TIMING

 READING SIMULATION MODELS
    GWF6 model EXPERIMENTAL will be created as model 1
 END OF SIMULATION MODELS

 READING SIMULATION EXCHANGES
 END OF SIMULATION EXCHANGES

 READING SOLUTIONGROUP

 Creating solution: SLN_1           

 OPENED experimental.ims
 FILE TYPE:IMS   UNIT 1014   STATUS:OLD                 
 FORMAT:FORMATTED              ACCESS:SEQUENTIAL          
 ACTION:READ                

 END OF SIMULATION SOLUTIONGROUP

 IMS -- ITERATIVE MODEL SOLUTION PACKAGE, VERSION 6, 4/28/2017
         INPUT READ FROM UNIT 1014
 # File generated by Flopy version 3.3.5 on 11/04/2021 at 11:01:53.

 PROCESSING IMS OPTIONS
 SIMPLE OPTION:
 DEFAULT SOLVER INPUT VALUES FOR FAST SOLUTIONS
 END OF IMS OPTIONS

 PROCESSING IMS NONLINEAR
 END OF IMS NONLINEAR DATA
 ***UNDER-RELAXATION WILL NOT BE USED***
 
 ***IMS LINEAR SOLVER WILL BE USED***

 IMSLINEAR -- UNSTRUCTURED LINEAR SOLUTION PACKAGE, VERSION 8, 04/28/2017

 PROCESSING LINEAR DATA
 END OF LINEAR DATA
 
 OUTER ITERATION CONVERGENCE CRITERION    (DVCLOSE) =    0.100000E-01
 MAXIMUM NUMBER OF OUTER ITERATIONS        (MXITER) = 750
 SOLVER PRINTOUT INDEX                     (IPRIMS) = 1
 NONLINEAR ITERATION METHOD            (NONLINMETH) = 0
 LINEAR SOLUTION METHOD                   (LINMETH) = 1

       SOLUTION BY THE BICONJUGATE-GRADIENT STABILIZED METHOD
 ------------------------------------------------------------------
 MAXIMUM OF 750 CALLS OF SOLUTION ROUTINE
 MAXIMUM OF 50 INTERNAL ITERATIONS PER CALL TO SOLUTION ROUTINE
 LINEAR ACCELERATION METHOD            = BCGS      
 MATRIX PRECONDITIONING TYPE           = INCOMPLETE LU       
 MATRIX SCALING APPROACH               = NO SCALING          
 MATRIX REORDERING APPROACH            = ORIGINAL ORDERING        
 NUMBER OF ORTHOGONALIZATIONS          = 0
 HEAD CHANGE CRITERION FOR CLOSURE     =    0.10000E-02
 RESIDUAL CHANGE CRITERION FOR CLOSURE =    0.10000E+00
 RESIDUAL CONVERGENCE OPTION           = 0
 RESIDUAL CONVERGENCE NORM             = INFINITY NORM   
 RELAXATION FACTOR                     =    0.00000E+00



1
                            STRESS PERIOD NO.    1, LENGTH =   1.000000    
                            -----------------------------------------------

                              NUMBER OF TIME STEPS =     1

                               MULTIPLIER FOR DELT =     1.000

                            INITIAL TIME STEP SIZE =   1.000000    



 PSEUDO-TRANSIENT CONTINUATION WILL BE APPLIED TO MODEL 1 ("EXPERIMENTAL") DURING THIS TIME STEP

 OUTER ITERATION SUMMARY
 ----------------------------------------------------------------------------------------------------------
                                OUTER      INNER                    STEP   MAXIMUM CHANGE MODEL-(CELLID) OR
 OUTER ITERATION STEP       ITERATION  ITERATION  MAXIMUM CHANGE SUCCESS             MODEL-PACKAGE-(NUMBER)
 ----------------------------------------------------------------------------------------------------------
 Model                              1         13       2.9342317                             1_GWF-(1,3060)
 Model                              2         17       2.9996120                              1_GWF-(1,829)
 Model                              3         18      -1.3874554                               1_GWF-(3,30)
 Model                              4         21      -1.2497916                             1_GWF-(3,1330)
 Model                              5         19     -0.48607455                             1_GWF-(3,1590)
 Model                              6         15     -0.11812647                             1_GWF-(3,1786)
 Model                              7         13 -1.78772840E-02                             1_GWF-(3,1010)
 Model                              8          5 -5.66274329E-03       *                       1_GWF-(1,36)
 Package                            8                  1541.9080                     1_GWF-SFR-(206)-inflow
 Model                              9          2 -1.61352194E-03       *                       1_GWF-(1,36)
 Package                            9                  417.41042                     1_GWF-SFR-(206)-inflow
 Model                             10          1 -4.14357050E-04       *                       1_GWF-(1,36)
 Package                           10                  101.14397                     1_GWF-SFR-(206)-inflow
 Model                             11          1 -3.38658754E-04       *                       1_GWF-(2,67)
 Package                           11                  24.437412                     1_GWF-SFR-(206)-inflow
 Model                             12          1 -4.37763388E-04       *                       1_GWF-(3,68)
 Package                           12                  14.357689                     1_GWF-SFR-(217)-inflow
 Model                             13          1 -4.06686603E-04       *                       1_GWF-(3,96)
 Package                           13                  11.717849                     1_GWF-SFR-(217)-inflow
 Model                             14          1 -3.99857763E-04       *                      1_GWF-(3,276)
 Package                           14                  8.5299860                     1_GWF-SFR-(217)-inflow
 Model                             15          1 -3.03318798E-04       *                      1_GWF-(3,595)
 Package                           15                  8.0648307                     1_GWF-SFR-(217)-inflow
 Model                             16          1 -3.57166751E-04       *                      1_GWF-(3,757)
 Package                           16                  5.9491668                     1_GWF-SFR-(217)-inflow
 Model                             17          1 -3.07364763E-04       *                     1_GWF-(3,1166)
 Package                           17                  4.9529292                     1_GWF-SFR-(206)-inflow
 Model                             18          1 -1.15776328E-04       *                     1_GWF-(3,1157)
 Package                           18                  5.1352176                     1_GWF-SFR-(206)-inflow
 Model                             19          1 -3.07970224E-04       *                     1_GWF-(3,1166)
 Package                           19                 0.21559199                     1_GWF-SFR-(206)-inflow
 Model                             20          1 -7.25966387E-05       *                     1_GWF-(3,1077)
 Package                           20                  4.3240920                     1_GWF-SFR-(206)-inflow
 Model                             21          1 -4.95381909E-04       *                     1_GWF-(3,1854)
 Package                           21                 0.19103483                     1_GWF-SFR-(206)-inflow
 Model                             22          1 -7.37717274E-05       *                      1_GWF-(3,226)
 Package                           22                  6.1894215                     1_GWF-SFR-(206)-inflow
 Model                             23          1 -3.68132391E-04       *                     1_GWF-(3,1586)
 Package                           23                -0.40776863                     1_GWF-SFR-(217)-inflow
 Model                             24          1  3.80553656E-05       *                      1_GWF-(2,209)
 Package                           24                  2.5340459                     1_GWF-SFR-(206)-inflow
 Model                             25          1 -6.89061307E-05       *                     1_GWF-(3,1164)
 Package                           25                  1.2334791                     1_GWF-SFR-(217)-inflow
 Model                             26          1 -6.07302213E-05       *                     1_GWF-(3,1854)
 Package                           26                 0.68306795                     1_GWF-SFR-(206)-inflow
 Model                             27          1 -4.76651010E-05       *                     1_GWF-(3,1084)
 Package                           27                 0.70453372                     1_GWF-SFR-(206)-inflow
 Model                             28          1 -3.26410800E-05       *                     1_GWF-(3,1777)
 Package                           28                 0.17942088                     1_GWF-SFR-(206)-inflow
 Model                             29          1 -3.57162308E-05       *                     1_GWF-(3,1783)
 Package                           29                 0.42092720                     1_GWF-SFR-(206)-inflow
 Model                             30          1 -2.36873066E-05       *                     1_GWF-(3,1777)
 Package                           30                 0.14816356                     1_GWF-SFR-(257)-inflow
 Model                             31          1 -3.67340202E-05       *                     1_GWF-(3,1783)
 Package                           31                 0.30551089                     1_GWF-SFR-(206)-inflow
 Model                             32          1 -2.04159458E-05       *                       1_GWF-(3,86)
 Package                           32                 0.20400712                     1_GWF-SFR-(217)-inflow
 Model                             33          1 -4.97921336E-05       *                     1_GWF-(3,1700)
 Package                           33                 0.21853530                     1_GWF-SFR-(206)-inflow
 Model                             34          1 -2.20870617E-05       *                       1_GWF-(3,86)
 Package                           34                 0.34237234                     1_GWF-SFR-(206)-inflow
 Model                             35          1 -1.02052167E-04       *                     1_GWF-(3,1700)
 Package                           35                 0.17417563                     1_GWF-SFR-(206)-inflow
 Model                             36          1 -1.76268435E-05       *                       1_GWF-(3,86)
 Package                           36                 0.92386332                     1_GWF-SFR-(206)-inflow
 Model                             37          1 -1.72750423E-05       *                     1_GWF-(3,2005)
 Package                           37                 0.15025357                     1_GWF-SFR-(206)-inflow
 Model                             38          1 -5.74275347E-06       *                      1_GWF-(3,152)
 Package                           38                 0.21133049                     1_GWF-SFR-(206)-inflow
 Model                             39          1 -2.04334632E-05       *                     1_GWF-(3,2005)
 Package                           39             2.09385955E-02                     1_GWF-SFR-(257)-inflow
 Model                             40          1 -6.56989573E-06       *                      1_GWF-(3,226)
 Package                           40                 0.23505432                     1_GWF-SFR-(206)-inflow
 Model                             41          1 -3.18615151E-05       *                     1_GWF-(3,1702)
 Package                           41             9.18779592E-03       *             1_GWF-SFR-(257)-inflow
 ----------------------------------------------------------------------------------------------------------


 41 CALLS TO NUMERICAL SOLUTION IN TIME STEP 1 STRESS PERIOD 1
 155 TOTAL ITERATIONS
1
                            STRESS PERIOD NO.    2, LENGTH =   1460.000    
                            -----------------------------------------------

                              NUMBER OF TIME STEPS =    48

                               MULTIPLIER FOR DELT =     1.000

                            INITIAL TIME STEP SIZE =   30.41667    

 OUTER ITERATION SUMMARY
 ----------------------------------------------------------------------------------------------------------
                                OUTER      INNER                    STEP   MAXIMUM CHANGE MODEL-(CELLID) OR
 OUTER ITERATION STEP       ITERATION  ITERATION  MAXIMUM CHANGE SUCCESS             MODEL-PACKAGE-(NUMBER)
 ----------------------------------------------------------------------------------------------------------
 Model                              1          1 -2.69336826E-06       *                      1_GWF-(3,226)
 Package                            1                 -915953.39                     1_GWF-SFR-(206)-inflow
 Model                              2          1 -9.20079657E-07       *                     1_GWF-(3,1930)
 Package                            2                  1.5096078                     1_GWF-SFR-(206)-inflow
 Model                              3          1 -2.57848512E-06       *                     1_GWF-(3,1328)
 Package                            3                 0.31252188                     1_GWF-SFR-(257)-inflow
 Model                              4          1 -9.01336279E-07       *                     1_GWF-(3,1930)
 Package                            4                 0.61925050                     1_GWF-SFR-(206)-inflow
 Model                              5          1 -1.04269517E-06       *                     1_GWF-(3,1328)
 Package                            5                 0.48713800                     1_GWF-SFR-(206)-inflow
 Model                              6          1 -8.21360601E-07       *                     1_GWF-(3,1854)
 Package                            6             8.69173557E-02                     1_GWF-SFR-(217)-inflow
 Model                              7          1 -6.58219079E-07       *                     1_GWF-(3,1328)
 Package                            7                 0.38915336                     1_GWF-SFR-(206)-inflow
 Model                              8          1 -8.42111177E-07       *                     1_GWF-(3,1854)
 Package                            8             5.19871165E-02                     1_GWF-SFR-(217)-inflow
 Model                              9          1 -4.62961111E-07       *                       1_GWF-(3,86)
 Package                            9                 0.35917013                     1_GWF-SFR-(206)-inflow
 Model                             10          1 -1.04856289E-06       *                     1_GWF-(3,1854)
 Package                           10             3.51419481E-02                     1_GWF-SFR-(217)-inflow
 Model                             11          1 -5.02819830E-07       *                       1_GWF-(3,86)
 Package                           11                 0.40118254                     1_GWF-SFR-(206)-inflow
 Model                             12          1 -1.95976637E-06       *                     1_GWF-(3,1777)
 Package                           12             3.29613850E-02                     1_GWF-SFR-(217)-inflow
 Model                             13          1 -4.63380474E-07       *                       1_GWF-(3,86)
 Package                           13                 0.71698880                     1_GWF-SFR-(206)-inflow
 Model                             14          1 -6.20776831E-07       *                     1_GWF-(3,1700)
 Package                           14             5.22466335E-02                     1_GWF-SFR-(217)-inflow
 Model                             15          1 -1.58678773E-07       *                      1_GWF-(3,152)
 Package                           15                 0.18568534                     1_GWF-SFR-(217)-inflow
 Model                             16          1 -8.55437747E-07       *                     1_GWF-(3,1329)
 Package                           16             5.34205296E-02                     1_GWF-SFR-(206)-inflow
 Model                             17          1 -9.41154781E-08       *                      1_GWF-(3,226)
 Package                           17                 0.33844927                     1_GWF-SFR-(206)-inflow
 Model                             18          1 -1.03155060E-07       *                     1_GWF-(3,2005)
 Package                           18             9.19135421E-03       *             1_GWF-SFR-(257)-inflow
 ----------------------------------------------------------------------------------------------------------


 18 CALLS TO NUMERICAL SOLUTION IN TIME STEP 1 STRESS PERIOD 2
 18 TOTAL ITERATIONS

 OUTER ITERATION SUMMARY
 ----------------------------------------------------------------------------------------------------------
                                OUTER      INNER                    STEP   MAXIMUM CHANGE MODEL-(CELLID) OR
 OUTER ITERATION STEP       ITERATION  ITERATION  MAXIMUM CHANGE SUCCESS             MODEL-PACKAGE-(NUMBER)
 ----------------------------------------------------------------------------------------------------------
 Model                              1          1 -1.93478172E-07       *                     1_GWF-(3,3135)
 Package                            1                 -915947.93                     1_GWF-SFR-(206)-inflow
 Model                              2          1 -9.42486054E-08       *                     1_GWF-(2,2575)
 Package                            2             4.43078174E-02                     1_GWF-SFR-(206)-inflow
 Model                              3          1 -1.36872217E-07       *                     1_GWF-(1,2714)
 Package                            3             2.80114566E-02                     1_GWF-SFR-(206)-inflow
 Model                              4          1 -8.15028898E-08       *                     1_GWF-(2,2575)
 Package                            4             4.59397429E-02                     1_GWF-SFR-(206)-inflow
 Model                              5          1 -9.87009230E-08       *                     1_GWF-(1,2714)
 Package                            5             2.58438238E-02                     1_GWF-SFR-(206)-inflow
 Model                              6          1 -8.17317982E-08       *                     1_GWF-(2,2643)
 Package                            6             3.29626505E-02                     1_GWF-SFR-(206)-inflow
 Model                              7          1 -6.44235740E-08       *                     1_GWF-(1,2713)
 Package                            7             2.56943526E-02                     1_GWF-SFR-(206)-inflow
 Model                              8          1 -1.08406567E-07       *                     1_GWF-(2,2574)
 Package                            8             2.06927066E-02                     1_GWF-SFR-(206)-inflow
 Model                              9          1 -6.16235525E-08       *                       1_GWF-(3,86)
 Package                            9             3.39916037E-02                     1_GWF-SFR-(206)-inflow
 Model                             10          1 -2.63203447E-07       *                     1_GWF-(2,1937)
 Package                           10             1.54722566E-02                     1_GWF-SFR-(206)-inflow
 Model                             11          1 -5.69513077E-08       *                       1_GWF-(3,86)
 Package                           11             9.45247036E-02                     1_GWF-SFR-(206)-inflow
 Model                             12          1 -3.55820191E-08       *                     1_GWF-(3,2007)
 Package                           12             1.72218511E-02                     1_GWF-SFR-(206)-inflow
 Model                             13          1 -1.97168788E-08       *                     1_GWF-(2,2573)
 Package                           13             2.01953845E-02                     1_GWF-SFR-(206)-inflow
 Model                             14          1 -3.30700232E-08       *                     1_GWF-(1,2575)
 Package                           14             3.68879922E-03       *             1_GWF-SFR-(217)-inflow
 ----------------------------------------------------------------------------------------------------------


 14 CALLS TO NUMERICAL SOLUTION IN TIME STEP 2 STRESS PERIOD 2
 14 TOTAL ITERATIONS

 OUTER ITERATION SUMMARY
 ----------------------------------------------------------------------------------------------------------
                                OUTER      INNER                    STEP   MAXIMUM CHANGE MODEL-(CELLID) OR
 OUTER ITERATION STEP       ITERATION  ITERATION  MAXIMUM CHANGE SUCCESS             MODEL-PACKAGE-(NUMBER)
 ----------------------------------------------------------------------------------------------------------
 Model                              1          1 -2.59534545E-08       *                     1_GWF-(2,2574)
 Package                            1                 -915947.51                     1_GWF-SFR-(206)-inflow
 Model                              2          1 -3.08999120E-08       *                     1_GWF-(1,2644)
 Package                            2             5.35554039E-03       *             1_GWF-SFR-(217)-inflow
 ----------------------------------------------------------------------------------------------------------


 2 CALLS TO NUMERICAL SOLUTION IN TIME STEP 3 STRESS PERIOD 2
 2 TOTAL ITERATIONS

 OUTER ITERATION SUMMARY
 ----------------------------------------------------------------------------------------------------------
                                OUTER      INNER                    STEP   MAXIMUM CHANGE MODEL-(CELLID) OR
 OUTER ITERATION STEP       ITERATION  ITERATION  MAXIMUM CHANGE SUCCESS             MODEL-PACKAGE-(NUMBER)
 ----------------------------------------------------------------------------------------------------------
 Model                              1          1 -2.21164953E-08       *                     1_GWF-(2,2574)
 Package                            1                 -915947.49                     1_GWF-SFR-(206)-inflow
 Model                              2          1 -2.68304632E-08       *                     1_GWF-(1,2644)
 Package                            2             5.20781988E-03       *             1_GWF-SFR-(206)-inflow
 ----------------------------------------------------------------------------------------------------------


 2 CALLS TO NUMERICAL SOLUTION IN TIME STEP 4 STRESS PERIOD 2
 2 TOTAL ITERATIONS

 OUTER ITERATION SUMMARY
 ----------------------------------------------------------------------------------------------------------
                                OUTER      INNER                    STEP   MAXIMUM CHANGE MODEL-(CELLID) OR
 OUTER ITERATION STEP       ITERATION  ITERATION  MAXIMUM CHANGE SUCCESS             MODEL-PACKAGE-(NUMBER)
 ----------------------------------------------------------------------------------------------------------
 Model                              1          1 -1.89064338E-08       *                     1_GWF-(2,2574)
 Package                            1                 -915947.47                     1_GWF-SFR-(206)-inflow
 Model                              2          1 -2.31167974E-08       *                     1_GWF-(1,2644)
 Package                            2             4.99751732E-03       *             1_GWF-SFR-(206)-inflow
 ----------------------------------------------------------------------------------------------------------


 2 CALLS TO NUMERICAL SOLUTION IN TIME STEP 5 STRESS PERIOD 2
 2 TOTAL ITERATIONS

 OUTER ITERATION SUMMARY
 ----------------------------------------------------------------------------------------------------------
                                OUTER      INNER                    STEP   MAXIMUM CHANGE MODEL-(CELLID) OR
 OUTER ITERATION STEP       ITERATION  ITERATION  MAXIMUM CHANGE SUCCESS             MODEL-PACKAGE-(NUMBER)
 ----------------------------------------------------------------------------------------------------------
 Model                              1          1 -1.58694320E-08       *                     1_GWF-(2,2574)
 Package                            1                 -915947.46                     1_GWF-SFR-(206)-inflow
 Model                              2          1 -2.03377510E-08       *                     1_GWF-(1,2644)
 Package                            2             4.49336952E-03       *             1_GWF-SFR-(206)-inflow
 ----------------------------------------------------------------------------------------------------------


 2 CALLS TO NUMERICAL SOLUTION IN TIME STEP 6 STRESS PERIOD 2
 2 TOTAL ITERATIONS

 OUTER ITERATION SUMMARY
 ----------------------------------------------------------------------------------------------------------
                                OUTER      INNER                    STEP   MAXIMUM CHANGE MODEL-(CELLID) OR
 OUTER ITERATION STEP       ITERATION  ITERATION  MAXIMUM CHANGE SUCCESS             MODEL-PACKAGE-(NUMBER)
 ----------------------------------------------------------------------------------------------------------
 Model                              1          1 -1.29967077E-08       *                     1_GWF-(2,2574)
 Package                            1                 -915947.45                     1_GWF-SFR-(206)-inflow
 Model                              2          1 -1.88790921E-08       *                     1_GWF-(1,2644)
 Package                            2             3.87377100E-03       *             1_GWF-SFR-(206)-inflow
 ----------------------------------------------------------------------------------------------------------


 2 CALLS TO NUMERICAL SOLUTION IN TIME STEP 7 STRESS PERIOD 2
 2 TOTAL ITERATIONS

 OUTER ITERATION SUMMARY
 ----------------------------------------------------------------------------------------------------------
                                OUTER      INNER                    STEP   MAXIMUM CHANGE MODEL-(CELLID) OR
 OUTER ITERATION STEP       ITERATION  ITERATION  MAXIMUM CHANGE SUCCESS             MODEL-PACKAGE-(NUMBER)
 ----------------------------------------------------------------------------------------------------------
 Model                              1          1 -1.02448325E-08       *                     1_GWF-(2,2574)
 Package                            1                 -915947.44                     1_GWF-SFR-(206)-inflow
 Model                              2          1 -1.97555323E-08       *                     1_GWF-(1,2575)
 Package                            2             3.22615657E-03       *             1_GWF-SFR-(206)-inflow
 ----------------------------------------------------------------------------------------------------------


 2 CALLS TO NUMERICAL SOLUTION IN TIME STEP 8 STRESS PERIOD 2
 2 TOTAL ITERATIONS

 OUTER ITERATION SUMMARY
 ----------------------------------------------------------------------------------------------------------
                                OUTER      INNER                    STEP   MAXIMUM CHANGE MODEL-(CELLID) OR
 OUTER ITERATION STEP       ITERATION  ITERATION  MAXIMUM CHANGE SUCCESS             MODEL-PACKAGE-(NUMBER)
 ----------------------------------------------------------------------------------------------------------
 Model                              1          1 -8.69738415E-09       *                      1_GWF-(3,152)
 Package                            1                 -915947.43                     1_GWF-SFR-(206)-inflow
 Model                              2          1 -2.91738047E-08       *                     1_GWF-(3,2005)
 Package                            2             2.68299688E-03       *             1_GWF-SFR-(206)-inflow
 ----------------------------------------------------------------------------------------------------------


 2 CALLS TO NUMERICAL SOLUTION IN TIME STEP 9 STRESS PERIOD 2
 2 TOTAL ITERATIONS

 OUTER ITERATION SUMMARY
 ----------------------------------------------------------------------------------------------------------
                                OUTER      INNER                    STEP   MAXIMUM CHANGE MODEL-(CELLID) OR
 OUTER ITERATION STEP       ITERATION  ITERATION  MAXIMUM CHANGE SUCCESS             MODEL-PACKAGE-(NUMBER)
 ----------------------------------------------------------------------------------------------------------
 Model                              1          1 -8.84696760E-09       *                      1_GWF-(3,152)
 Package                            1                 -915947.42                     1_GWF-SFR-(206)-inflow
 Model                              2          1 -3.28945191E-08       *                     1_GWF-(2,1861)
 Package                            2             2.55867716E-03       *             1_GWF-SFR-(206)-inflow
 ----------------------------------------------------------------------------------------------------------


 2 CALLS TO NUMERICAL SOLUTION IN TIME STEP 10 STRESS PERIOD 2
 2 TOTAL ITERATIONS

 OUTER ITERATION SUMMARY
 ----------------------------------------------------------------------------------------------------------
                                OUTER      INNER                    STEP   MAXIMUM CHANGE MODEL-(CELLID) OR
 OUTER ITERATION STEP       ITERATION  ITERATION  MAXIMUM CHANGE SUCCESS             MODEL-PACKAGE-(NUMBER)
 ----------------------------------------------------------------------------------------------------------
 Model                              1          1 -4.03372269E-09       *                      1_GWF-(3,226)
 Package                            1                 -915947.40                     1_GWF-SFR-(206)-inflow
 Model                              2          1 -6.36467234E-09       *                     1_GWF-(2,1253)
 Package                            2             1.22456031E-03       *             1_GWF-SFR-(206)-inflow
 ----------------------------------------------------------------------------------------------------------


 2 CALLS TO NUMERICAL SOLUTION IN TIME STEP 11 STRESS PERIOD 2
 2 TOTAL ITERATIONS

 OUTER ITERATION SUMMARY
 ----------------------------------------------------------------------------------------------------------
                                OUTER      INNER                    STEP   MAXIMUM CHANGE MODEL-(CELLID) OR
 OUTER ITERATION STEP       ITERATION  ITERATION  MAXIMUM CHANGE SUCCESS             MODEL-PACKAGE-(NUMBER)
 ----------------------------------------------------------------------------------------------------------
 Model                              1          1 -1.88927629E-09       *                      1_GWF-(3,152)
 Package                            1                 -915947.39                     1_GWF-SFR-(206)-inflow
 Model                              2          1 -6.15978024E-09       *                     1_GWF-(2,1253)
 Package                            2             5.99319107E-04       *             1_GWF-SFR-(217)-inflow
 ----------------------------------------------------------------------------------------------------------


 2 CALLS TO NUMERICAL SOLUTION IN TIME STEP 12 STRESS PERIOD 2
 2 TOTAL ITERATIONS

 OUTER ITERATION SUMMARY
 ----------------------------------------------------------------------------------------------------------
                                OUTER      INNER                    STEP   MAXIMUM CHANGE MODEL-(CELLID) OR
 OUTER ITERATION STEP       ITERATION  ITERATION  MAXIMUM CHANGE SUCCESS             MODEL-PACKAGE-(NUMBER)
 ----------------------------------------------------------------------------------------------------------
 Model                              1          1 -1.90075866E-09       *                      1_GWF-(3,152)
 Package                            1                 -915947.39                     1_GWF-SFR-(206)-inflow
 Model                              2          1 -9.44251610E-09       *                     1_GWF-(3,1700)
 Package                            2             4.97134573E-04       *             1_GWF-SFR-(217)-inflow
 ----------------------------------------------------------------------------------------------------------


 2 CALLS TO NUMERICAL SOLUTION IN TIME STEP 13 STRESS PERIOD 2
 2 TOTAL ITERATIONS

 OUTER ITERATION SUMMARY
 ----------------------------------------------------------------------------------------------------------
                                OUTER      INNER                    STEP   MAXIMUM CHANGE MODEL-(CELLID) OR
 OUTER ITERATION STEP       ITERATION  ITERATION  MAXIMUM CHANGE SUCCESS             MODEL-PACKAGE-(NUMBER)
 ----------------------------------------------------------------------------------------------------------
 Model                              1          1 -1.09849907E-09       *                      1_GWF-(3,152)
 Package                            1                 -915947.39                     1_GWF-SFR-(206)-inflow
 Model                              2          1 -1.14718546E-09       *                     1_GWF-(2,1860)
 Package                            2             5.18440307E-04       *             1_GWF-SFR-(206)-inflow
 ----------------------------------------------------------------------------------------------------------


 2 CALLS TO NUMERICAL SOLUTION IN TIME STEP 14 STRESS PERIOD 2
 2 TOTAL ITERATIONS

 OUTER ITERATION SUMMARY
 ----------------------------------------------------------------------------------------------------------
                                OUTER      INNER                    STEP   MAXIMUM CHANGE MODEL-(CELLID) OR
 OUTER ITERATION STEP       ITERATION  ITERATION  MAXIMUM CHANGE SUCCESS             MODEL-PACKAGE-(NUMBER)
 ----------------------------------------------------------------------------------------------------------
 Model                              1          1 -5.36317657E-10       *                     1_GWF-(2,2407)
 Package                            1                 -915947.39                     1_GWF-SFR-(206)-inflow
 Model                              2          1 -1.07314690E-09       *                     1_GWF-(1,2315)
 Package                            2             1.38104789E-04       *             1_GWF-SFR-(206)-inflow
 ----------------------------------------------------------------------------------------------------------


 2 CALLS TO NUMERICAL SOLUTION IN TIME STEP 15 STRESS PERIOD 2
 2 TOTAL ITERATIONS

 OUTER ITERATION SUMMARY
 ----------------------------------------------------------------------------------------------------------
                                OUTER      INNER                    STEP   MAXIMUM CHANGE MODEL-(CELLID) OR
 OUTER ITERATION STEP       ITERATION  ITERATION  MAXIMUM CHANGE SUCCESS             MODEL-PACKAGE-(NUMBER)
 ----------------------------------------------------------------------------------------------------------
 Model                              1          1 -4.29594138E-10       *                     1_GWF-(2,2407)
 Package                            1                 -915947.38                     1_GWF-SFR-(206)-inflow
 Model                              2          1 -1.26505029E-09       *                     1_GWF-(2,1860)
 Package                            2             6.43481164E-05       *             1_GWF-SFR-(257)-inflow
 ----------------------------------------------------------------------------------------------------------


 2 CALLS TO NUMERICAL SOLUTION IN TIME STEP 16 STRESS PERIOD 2
 2 TOTAL ITERATIONS

 OUTER ITERATION SUMMARY
 ----------------------------------------------------------------------------------------------------------
                                OUTER      INNER                    STEP   MAXIMUM CHANGE MODEL-(CELLID) OR
 OUTER ITERATION STEP       ITERATION  ITERATION  MAXIMUM CHANGE SUCCESS             MODEL-PACKAGE-(NUMBER)
 ----------------------------------------------------------------------------------------------------------
 Model                              1          1 -3.40492079E-10       *                      1_GWF-(3,226)
 Package                            1                 -915947.38                     1_GWF-SFR-(206)-inflow
 Model                              2          1 -1.49520929E-09       *                     1_GWF-(3,1585)
 Package                            2             6.15870225E-05       *             1_GWF-SFR-(257)-inflow
 ----------------------------------------------------------------------------------------------------------


 2 CALLS TO NUMERICAL SOLUTION IN TIME STEP 17 STRESS PERIOD 2
 2 TOTAL ITERATIONS

 OUTER ITERATION SUMMARY
 ----------------------------------------------------------------------------------------------------------
                                OUTER      INNER                    STEP   MAXIMUM CHANGE MODEL-(CELLID) OR
 OUTER ITERATION STEP       ITERATION  ITERATION  MAXIMUM CHANGE SUCCESS             MODEL-PACKAGE-(NUMBER)
 ----------------------------------------------------------------------------------------------------------
 Model                              1          1 -1.89572802E-10       *                      1_GWF-(3,152)
 Package                            1                 -915947.38                     1_GWF-SFR-(206)-inflow
 Model                              2          1 -3.59051455E-10       *                     1_GWF-(3,1594)
 Package                            2             5.13334031E-05       *             1_GWF-SFR-(217)-inflow
 ----------------------------------------------------------------------------------------------------------


 2 CALLS TO NUMERICAL SOLUTION IN TIME STEP 18 STRESS PERIOD 2
 2 TOTAL ITERATIONS

 OUTER ITERATION SUMMARY
 ----------------------------------------------------------------------------------------------------------
                                OUTER      INNER                    STEP   MAXIMUM CHANGE MODEL-(CELLID) OR
 OUTER ITERATION STEP       ITERATION  ITERATION  MAXIMUM CHANGE SUCCESS             MODEL-PACKAGE-(NUMBER)
 ----------------------------------------------------------------------------------------------------------
 Model                              1          1 -1.41113787E-10       *                       1_GWF-(3,22)
 Package                            1                 -915947.38                     1_GWF-SFR-(206)-inflow
 Model                              2          1 -2.10860662E-10       *                     1_GWF-(3,2492)
 Package                            2             1.18201082E-04       *             1_GWF-SFR-(206)-inflow
 ----------------------------------------------------------------------------------------------------------


 2 CALLS TO NUMERICAL SOLUTION IN TIME STEP 19 STRESS PERIOD 2
 2 TOTAL ITERATIONS

 OUTER ITERATION SUMMARY
 ----------------------------------------------------------------------------------------------------------
                                OUTER      INNER                    STEP   MAXIMUM CHANGE MODEL-(CELLID) OR
 OUTER ITERATION STEP       ITERATION  ITERATION  MAXIMUM CHANGE SUCCESS             MODEL-PACKAGE-(NUMBER)
 ----------------------------------------------------------------------------------------------------------
 Model                              1          1 -8.36450909E-11       *                     1_GWF-(2,1937)
 Package                            1                 -915947.38                     1_GWF-SFR-(206)-inflow
 Model                              2          1 -1.00214947E-10       *                     1_GWF-(2,1252)
 Package                            2             3.08168773E-05       *             1_GWF-SFR-(206)-inflow
 ----------------------------------------------------------------------------------------------------------


 2 CALLS TO NUMERICAL SOLUTION IN TIME STEP 20 STRESS PERIOD 2
 2 TOTAL ITERATIONS

 OUTER ITERATION SUMMARY
 ----------------------------------------------------------------------------------------------------------
                                OUTER      INNER                    STEP   MAXIMUM CHANGE MODEL-(CELLID) OR
 OUTER ITERATION STEP       ITERATION  ITERATION  MAXIMUM CHANGE SUCCESS             MODEL-PACKAGE-(NUMBER)
 ----------------------------------------------------------------------------------------------------------
 Model                              1          1 -7.53175300E-11       *                     1_GWF-(2,2011)
 Package                            1                 -915947.38                     1_GWF-SFR-(206)-inflow
 Model                              2          1 -9.02389274E-11       *                     1_GWF-(2,1252)
 Package                            2             1.50625424E-05       *             1_GWF-SFR-(206)-inflow
 ----------------------------------------------------------------------------------------------------------


 2 CALLS TO NUMERICAL SOLUTION IN TIME STEP 21 STRESS PERIOD 2
 2 TOTAL ITERATIONS

 OUTER ITERATION SUMMARY
 ----------------------------------------------------------------------------------------------------------
                                OUTER      INNER                    STEP   MAXIMUM CHANGE MODEL-(CELLID) OR
 OUTER ITERATION STEP       ITERATION  ITERATION  MAXIMUM CHANGE SUCCESS             MODEL-PACKAGE-(NUMBER)
 ----------------------------------------------------------------------------------------------------------
 Model                              1          1 -6.36362074E-11       *                     1_GWF-(2,2011)
 Package                            1                 -915947.38                     1_GWF-SFR-(206)-inflow
 Model                              2          1 -7.97513167E-11       *                     1_GWF-(2,1252)
 Package                            2             8.38667531E-06       *             1_GWF-SFR-(206)-inflow
 ----------------------------------------------------------------------------------------------------------


 2 CALLS TO NUMERICAL SOLUTION IN TIME STEP 22 STRESS PERIOD 2
 2 TOTAL ITERATIONS

 OUTER ITERATION SUMMARY
 ----------------------------------------------------------------------------------------------------------
                                OUTER      INNER                    STEP   MAXIMUM CHANGE MODEL-(CELLID) OR
 OUTER ITERATION STEP       ITERATION  ITERATION  MAXIMUM CHANGE SUCCESS             MODEL-PACKAGE-(NUMBER)
 ----------------------------------------------------------------------------------------------------------
 Model                              1          1 -5.49107426E-11       *                     1_GWF-(2,2011)
 Package                            1                 -915947.38                     1_GWF-SFR-(206)-inflow
 Model                              2          1 -6.62510047E-11       *                     1_GWF-(2,1252)
 Package                            2             8.69413866E-06       *             1_GWF-SFR-(206)-inflow
 ----------------------------------------------------------------------------------------------------------


 2 CALLS TO NUMERICAL SOLUTION IN TIME STEP 23 STRESS PERIOD 2
 2 TOTAL ITERATIONS

 OUTER ITERATION SUMMARY
 ----------------------------------------------------------------------------------------------------------
                                OUTER      INNER                    STEP   MAXIMUM CHANGE MODEL-(CELLID) OR
 OUTER ITERATION STEP       ITERATION  ITERATION  MAXIMUM CHANGE SUCCESS             MODEL-PACKAGE-(NUMBER)
 ----------------------------------------------------------------------------------------------------------
 Model                              1          1 -4.91127139E-11       *                     1_GWF-(2,2010)
 Package                            1                 -915947.38                     1_GWF-SFR-(206)-inflow
 Model                              2          1 -5.15001375E-11       *                     1_GWF-(2,1331)
 Package                            2             1.00579639E-05       *             1_GWF-SFR-(206)-inflow
 ----------------------------------------------------------------------------------------------------------


 2 CALLS TO NUMERICAL SOLUTION IN TIME STEP 24 STRESS PERIOD 2
 2 TOTAL ITERATIONS

 OUTER ITERATION SUMMARY
 ----------------------------------------------------------------------------------------------------------
                                OUTER      INNER                    STEP   MAXIMUM CHANGE MODEL-(CELLID) OR
 OUTER ITERATION STEP       ITERATION  ITERATION  MAXIMUM CHANGE SUCCESS             MODEL-PACKAGE-(NUMBER)
 ----------------------------------------------------------------------------------------------------------
 Model                              1          1 -4.54463134E-11       *                     1_GWF-(2,2010)
 Package                            1                 -915947.38                     1_GWF-SFR-(206)-inflow
 Model                              2          1 -3.92788024E-11       *                     1_GWF-(2,1331)
 Package                            2             1.12824821E-05       *             1_GWF-SFR-(206)-inflow
 ----------------------------------------------------------------------------------------------------------


 2 CALLS TO NUMERICAL SOLUTION IN TIME STEP 25 STRESS PERIOD 2
 2 TOTAL ITERATIONS

 OUTER ITERATION SUMMARY
 ----------------------------------------------------------------------------------------------------------
                                OUTER      INNER                    STEP   MAXIMUM CHANGE MODEL-(CELLID) OR
 OUTER ITERATION STEP       ITERATION  ITERATION  MAXIMUM CHANGE SUCCESS             MODEL-PACKAGE-(NUMBER)
 ----------------------------------------------------------------------------------------------------------
 Model                              1          1 -4.22630819E-11       *                     1_GWF-(2,2010)
 Package                            1                 -915947.38                     1_GWF-SFR-(206)-inflow
 Model                              2          1 -3.02406988E-11       *                     1_GWF-(2,1331)
 Package                            2             1.21291919E-05       *             1_GWF-SFR-(206)-inflow
 ----------------------------------------------------------------------------------------------------------


 2 CALLS TO NUMERICAL SOLUTION IN TIME STEP 26 STRESS PERIOD 2
 2 TOTAL ITERATIONS

 OUTER ITERATION SUMMARY
 ----------------------------------------------------------------------------------------------------------
                                OUTER      INNER                    STEP   MAXIMUM CHANGE MODEL-(CELLID) OR
 OUTER ITERATION STEP       ITERATION  ITERATION  MAXIMUM CHANGE SUCCESS             MODEL-PACKAGE-(NUMBER)
 ----------------------------------------------------------------------------------------------------------
 Model                              1          1 -3.78577170E-11       *                     1_GWF-(2,2010)
 Package                            1                 -915947.38                     1_GWF-SFR-(206)-inflow
 Model                              2          1 -2.48121523E-11       *                     1_GWF-(2,1331)
 Package                            2             1.19223062E-05       *             1_GWF-SFR-(206)-inflow
 ----------------------------------------------------------------------------------------------------------


 2 CALLS TO NUMERICAL SOLUTION IN TIME STEP 27 STRESS PERIOD 2
 2 TOTAL ITERATIONS

 OUTER ITERATION SUMMARY
 ----------------------------------------------------------------------------------------------------------
                                OUTER      INNER                    STEP   MAXIMUM CHANGE MODEL-(CELLID) OR
 OUTER ITERATION STEP       ITERATION  ITERATION  MAXIMUM CHANGE SUCCESS             MODEL-PACKAGE-(NUMBER)
 ----------------------------------------------------------------------------------------------------------
 Model                              1          1 -3.11501935E-11       *                     1_GWF-(2,2010)
 Package                            1                 -915947.38                     1_GWF-SFR-(206)-inflow
 Model                              2          1 -2.12878604E-11       *                     1_GWF-(2,1331)
 Package                            2             1.07904617E-05       *             1_GWF-SFR-(206)-inflow
 ----------------------------------------------------------------------------------------------------------


 2 CALLS TO NUMERICAL SOLUTION IN TIME STEP 28 STRESS PERIOD 2
 2 TOTAL ITERATIONS

 OUTER ITERATION SUMMARY
 ----------------------------------------------------------------------------------------------------------
                                OUTER      INNER                    STEP   MAXIMUM CHANGE MODEL-(CELLID) OR
 OUTER ITERATION STEP       ITERATION  ITERATION  MAXIMUM CHANGE SUCCESS             MODEL-PACKAGE-(NUMBER)
 ----------------------------------------------------------------------------------------------------------
 Model                              1          1 -2.42721399E-11       *                     1_GWF-(2,2010)
 Package                            1                 -915947.38                     1_GWF-SFR-(206)-inflow
 Model                              2          1 -1.81330506E-11       *                     1_GWF-(2,1331)
 Package                            2             8.75914858E-06       *             1_GWF-SFR-(206)-inflow
 ----------------------------------------------------------------------------------------------------------


 2 CALLS TO NUMERICAL SOLUTION IN TIME STEP 29 STRESS PERIOD 2
 2 TOTAL ITERATIONS

 OUTER ITERATION SUMMARY
 ----------------------------------------------------------------------------------------------------------
                                OUTER      INNER                    STEP   MAXIMUM CHANGE MODEL-(CELLID) OR
 OUTER ITERATION STEP       ITERATION  ITERATION  MAXIMUM CHANGE SUCCESS             MODEL-PACKAGE-(NUMBER)
 ----------------------------------------------------------------------------------------------------------
 Model                              1          1 -1.84172677E-11       *                     1_GWF-(2,2010)
 Package                            1                 -915947.38                     1_GWF-SFR-(206)-inflow
 Model                              2          1 -1.39266376E-11       *                     1_GWF-(2,1332)
 Package                            2             7.51210412E-06       *             1_GWF-SFR-(206)-inflow
 ----------------------------------------------------------------------------------------------------------


 2 CALLS TO NUMERICAL SOLUTION IN TIME STEP 30 STRESS PERIOD 2
 2 TOTAL ITERATIONS

 OUTER ITERATION SUMMARY
 ----------------------------------------------------------------------------------------------------------
                                OUTER      INNER                    STEP   MAXIMUM CHANGE MODEL-(CELLID) OR
 OUTER ITERATION STEP       ITERATION  ITERATION  MAXIMUM CHANGE SUCCESS             MODEL-PACKAGE-(NUMBER)
 ----------------------------------------------------------------------------------------------------------
 Model                              1          1 -1.33297817E-11       *                     1_GWF-(2,1936)
 Package                            1                 -915947.38                     1_GWF-SFR-(206)-inflow
 Model                              2          1 -1.02033937E-11       *                     1_GWF-(2,1410)
 Package                            2             5.81947493E-06       *             1_GWF-SFR-(206)-inflow
 ----------------------------------------------------------------------------------------------------------


 2 CALLS TO NUMERICAL SOLUTION IN TIME STEP 31 STRESS PERIOD 2
 2 TOTAL ITERATIONS

 OUTER ITERATION SUMMARY
 ----------------------------------------------------------------------------------------------------------
                                OUTER      INNER                    STEP   MAXIMUM CHANGE MODEL-(CELLID) OR
 OUTER ITERATION STEP       ITERATION  ITERATION  MAXIMUM CHANGE SUCCESS             MODEL-PACKAGE-(NUMBER)
 ----------------------------------------------------------------------------------------------------------
 Model                              1          1 -9.32232069E-12       *                     1_GWF-(2,1937)
 Package                            1                 -915947.38                     1_GWF-SFR-(206)-inflow
 Model                              2          1 -7.73070497E-12       *                     1_GWF-(3,1936)
 Package                            2             4.77299301E-06       *             1_GWF-SFR-(206)-inflow
 ----------------------------------------------------------------------------------------------------------


 2 CALLS TO NUMERICAL SOLUTION IN TIME STEP 32 STRESS PERIOD 2
 2 TOTAL ITERATIONS

 OUTER ITERATION SUMMARY
 ----------------------------------------------------------------------------------------------------------
                                OUTER      INNER                    STEP   MAXIMUM CHANGE MODEL-(CELLID) OR
 OUTER ITERATION STEP       ITERATION  ITERATION  MAXIMUM CHANGE SUCCESS             MODEL-PACKAGE-(NUMBER)
 ----------------------------------------------------------------------------------------------------------
 Model                              1          1 -6.73594514E-12       *                     1_GWF-(3,1700)
 Package                            1                 -915947.38                     1_GWF-SFR-(206)-inflow
 Model                              2          1 -5.91171556E-12       *                     1_GWF-(3,1937)
 Package                            2             3.85751892E-06       *             1_GWF-SFR-(206)-inflow
 ----------------------------------------------------------------------------------------------------------


 2 CALLS TO NUMERICAL SOLUTION IN TIME STEP 33 STRESS PERIOD 2
 2 TOTAL ITERATIONS

 OUTER ITERATION SUMMARY
 ----------------------------------------------------------------------------------------------------------
                                OUTER      INNER                    STEP   MAXIMUM CHANGE MODEL-(CELLID) OR
 OUTER ITERATION STEP       ITERATION  ITERATION  MAXIMUM CHANGE SUCCESS             MODEL-PACKAGE-(NUMBER)
 ----------------------------------------------------------------------------------------------------------
 Model                              1          1 -5.54223334E-12       *                     1_GWF-(3,1700)
 Package                            1                 -915947.38                     1_GWF-SFR-(206)-inflow
 Model                              2          1 -4.97379915E-12       *                     1_GWF-(3,1784)
 Package                            2             3.27045362E-06       *             1_GWF-SFR-(206)-inflow
 ----------------------------------------------------------------------------------------------------------


 2 CALLS TO NUMERICAL SOLUTION IN TIME STEP 34 STRESS PERIOD 2
 2 TOTAL ITERATIONS

 OUTER ITERATION SUMMARY
 ----------------------------------------------------------------------------------------------------------
                                OUTER      INNER                    STEP   MAXIMUM CHANGE MODEL-(CELLID) OR
 OUTER ITERATION STEP       ITERATION  ITERATION  MAXIMUM CHANGE SUCCESS             MODEL-PACKAGE-(NUMBER)
 ----------------------------------------------------------------------------------------------------------
 Model                              1          1 -4.71800377E-12       *                     1_GWF-(1,1591)
 Package                            1                 -915947.38                     1_GWF-SFR-(206)-inflow
 Model                              2          1 -4.23483471E-12       *                     1_GWF-(1,1706)
 Package                            2             2.76499653E-06       *             1_GWF-SFR-(206)-inflow
 ----------------------------------------------------------------------------------------------------------


 2 CALLS TO NUMERICAL SOLUTION IN TIME STEP 35 STRESS PERIOD 2
 2 TOTAL ITERATIONS

 OUTER ITERATION SUMMARY
 ----------------------------------------------------------------------------------------------------------
                                OUTER      INNER                    STEP   MAXIMUM CHANGE MODEL-(CELLID) OR
 OUTER ITERATION STEP       ITERATION  ITERATION  MAXIMUM CHANGE SUCCESS             MODEL-PACKAGE-(NUMBER)
 ----------------------------------------------------------------------------------------------------------
 Model                              1          1 -3.95061761E-12       *                     1_GWF-(1,1408)
 Package                            1                 -915947.38                     1_GWF-SFR-(206)-inflow
 Model                              2          1 -3.72324394E-12       *                     1_GWF-(1,1937)
 Package                            2             2.36564986E-06       *             1_GWF-SFR-(206)-inflow
 ----------------------------------------------------------------------------------------------------------


 2 CALLS TO NUMERICAL SOLUTION IN TIME STEP 36 STRESS PERIOD 2
 2 TOTAL ITERATIONS

 OUTER ITERATION SUMMARY
 ----------------------------------------------------------------------------------------------------------
                                OUTER      INNER                    STEP   MAXIMUM CHANGE MODEL-(CELLID) OR
 OUTER ITERATION STEP       ITERATION  ITERATION  MAXIMUM CHANGE SUCCESS             MODEL-PACKAGE-(NUMBER)
 ----------------------------------------------------------------------------------------------------------
 Model                              1          1 -3.41060513E-12       *                     1_GWF-(1,1703)
 Package                            1                 -915947.38                     1_GWF-SFR-(206)-inflow
 Model                              2          1 -3.18323146E-12       *                     1_GWF-(3,2151)
 Package                            2             2.06609045E-06       *             1_GWF-SFR-(206)-inflow
 ----------------------------------------------------------------------------------------------------------


 2 CALLS TO NUMERICAL SOLUTION IN TIME STEP 37 STRESS PERIOD 2
 2 TOTAL ITERATIONS

 OUTER ITERATION SUMMARY
 ----------------------------------------------------------------------------------------------------------
                                OUTER      INNER                    STEP   MAXIMUM CHANGE MODEL-(CELLID) OR
 OUTER ITERATION STEP       ITERATION  ITERATION  MAXIMUM CHANGE SUCCESS             MODEL-PACKAGE-(NUMBER)
 ----------------------------------------------------------------------------------------------------------
 Model                              1          1 -2.95585778E-12       *                     1_GWF-(3,1935)
 Package                            1                 -915947.38                     1_GWF-SFR-(206)-inflow
 Model                              2          1 -2.78532752E-12       *                     1_GWF-(3,2081)
 Package                            2             1.76356707E-06       *             1_GWF-SFR-(206)-inflow
 ----------------------------------------------------------------------------------------------------------


 2 CALLS TO NUMERICAL SOLUTION IN TIME STEP 38 STRESS PERIOD 2
 2 TOTAL ITERATIONS

 OUTER ITERATION SUMMARY
 ----------------------------------------------------------------------------------------------------------
                                OUTER      INNER                    STEP   MAXIMUM CHANGE MODEL-(CELLID) OR
 OUTER ITERATION STEP       ITERATION  ITERATION  MAXIMUM CHANGE SUCCESS             MODEL-PACKAGE-(NUMBER)
 ----------------------------------------------------------------------------------------------------------
 Model                              1          1 -2.64321898E-12       *                     1_GWF-(3,1863)
 Package                            1                 -915947.38                     1_GWF-SFR-(206)-inflow
 Model                              2          1 -2.44426701E-12       *                     1_GWF-(3,2151)
 Package                            2             1.43120631E-06       *             1_GWF-SFR-(206)-inflow
 ----------------------------------------------------------------------------------------------------------


 2 CALLS TO NUMERICAL SOLUTION IN TIME STEP 39 STRESS PERIOD 2
 2 TOTAL ITERATIONS

 OUTER ITERATION SUMMARY
 ----------------------------------------------------------------------------------------------------------
                                OUTER      INNER                    STEP   MAXIMUM CHANGE MODEL-(CELLID) OR
 OUTER ITERATION STEP       ITERATION  ITERATION  MAXIMUM CHANGE SUCCESS             MODEL-PACKAGE-(NUMBER)
 ----------------------------------------------------------------------------------------------------------
 Model                              1          1 -2.35900188E-12       *                     1_GWF-(3,1491)
 Package                            1                 -915947.38                     1_GWF-SFR-(206)-inflow
 Model                              2          1 -2.18847163E-12       *                     1_GWF-(3,2011)
 Package                            2             1.34564613E-06       *             1_GWF-SFR-(206)-inflow
 ----------------------------------------------------------------------------------------------------------


 2 CALLS TO NUMERICAL SOLUTION IN TIME STEP 40 STRESS PERIOD 2
 2 TOTAL ITERATIONS

 OUTER ITERATION SUMMARY
 ----------------------------------------------------------------------------------------------------------
                                OUTER      INNER                    STEP   MAXIMUM CHANGE MODEL-(CELLID) OR
 OUTER ITERATION STEP       ITERATION  ITERATION  MAXIMUM CHANGE SUCCESS             MODEL-PACKAGE-(NUMBER)
 ----------------------------------------------------------------------------------------------------------
 Model                              1          1 -2.07478479E-12       *                     1_GWF-(3,1783)
 Package                            1                 -915947.38                     1_GWF-SFR-(206)-inflow
 Model                              2          1 -1.96109795E-12       *                     1_GWF-(3,1862)
 Package                            2             1.24526607E-06       *             1_GWF-SFR-(206)-inflow
 ----------------------------------------------------------------------------------------------------------


 2 CALLS TO NUMERICAL SOLUTION IN TIME STEP 41 STRESS PERIOD 2
 2 TOTAL ITERATIONS

 OUTER ITERATION SUMMARY
 ----------------------------------------------------------------------------------------------------------
                                OUTER      INNER                    STEP   MAXIMUM CHANGE MODEL-(CELLID) OR
 OUTER ITERATION STEP       ITERATION  ITERATION  MAXIMUM CHANGE SUCCESS             MODEL-PACKAGE-(NUMBER)
 ----------------------------------------------------------------------------------------------------------
 Model                              1          1 -1.93267624E-12       *                     1_GWF-(3,1863)
 Package                            1                 -915947.38                     1_GWF-SFR-(206)-inflow
 Model                              2          1 -1.84741111E-12       *                     1_GWF-(3,2009)
 Package                            2             1.14310762E-06       *             1_GWF-SFR-(206)-inflow
 ----------------------------------------------------------------------------------------------------------


 2 CALLS TO NUMERICAL SOLUTION IN TIME STEP 42 STRESS PERIOD 2
 2 TOTAL ITERATIONS

 OUTER ITERATION SUMMARY
 ----------------------------------------------------------------------------------------------------------
                                OUTER      INNER                    STEP   MAXIMUM CHANGE MODEL-(CELLID) OR
 OUTER ITERATION STEP       ITERATION  ITERATION  MAXIMUM CHANGE SUCCESS             MODEL-PACKAGE-(NUMBER)
 ----------------------------------------------------------------------------------------------------------
 Model                              1          1 -1.79056769E-12       *                     1_GWF-(3,1784)
 Package                            1                 -915947.38                     1_GWF-SFR-(206)-inflow
 Model                              2          1 -1.62003744E-12       *                     1_GWF-(3,2148)
 Package                            2             1.15792751E-06       *             1_GWF-SFR-(206)-inflow
 ----------------------------------------------------------------------------------------------------------


 2 CALLS TO NUMERICAL SOLUTION IN TIME STEP 43 STRESS PERIOD 2
 2 TOTAL ITERATIONS

 OUTER ITERATION SUMMARY
 ----------------------------------------------------------------------------------------------------------
                                OUTER      INNER                    STEP   MAXIMUM CHANGE MODEL-(CELLID) OR
 OUTER ITERATION STEP       ITERATION  ITERATION  MAXIMUM CHANGE SUCCESS             MODEL-PACKAGE-(NUMBER)
 ----------------------------------------------------------------------------------------------------------
 Model                              1          1 -1.56319402E-12       *                     1_GWF-(3,1938)
 Package                            1                 -915947.38                     1_GWF-SFR-(206)-inflow
 Model                              2          1 -1.53477231E-12       *                     1_GWF-(3,1931)
 Package                            2             9.33257958E-07       *             1_GWF-SFR-(206)-inflow
 ----------------------------------------------------------------------------------------------------------


 2 CALLS TO NUMERICAL SOLUTION IN TIME STEP 44 STRESS PERIOD 2
 2 TOTAL ITERATIONS

 OUTER ITERATION SUMMARY
 ----------------------------------------------------------------------------------------------------------
                                OUTER      INNER                    STEP   MAXIMUM CHANGE MODEL-(CELLID) OR
 OUTER ITERATION STEP       ITERATION  ITERATION  MAXIMUM CHANGE SUCCESS             MODEL-PACKAGE-(NUMBER)
 ----------------------------------------------------------------------------------------------------------
 Model                              1          1 -1.47792889E-12       *                     1_GWF-(3,1937)
 Package                            1                 -915947.38                     1_GWF-SFR-(206)-inflow
 Model                              2          1 -1.42108547E-12       *                     1_GWF-(3,1933)
 Package                            2             9.67047310E-07       *             1_GWF-SFR-(206)-inflow
 ----------------------------------------------------------------------------------------------------------


 2 CALLS TO NUMERICAL SOLUTION IN TIME STEP 45 STRESS PERIOD 2
 2 TOTAL ITERATIONS

 OUTER ITERATION SUMMARY
 ----------------------------------------------------------------------------------------------------------
                                OUTER      INNER                    STEP   MAXIMUM CHANGE MODEL-(CELLID) OR
 OUTER ITERATION STEP       ITERATION  ITERATION  MAXIMUM CHANGE SUCCESS             MODEL-PACKAGE-(NUMBER)
 ----------------------------------------------------------------------------------------------------------
 Model                              1          1 -1.36424205E-12       *                     1_GWF-(3,1779)
 Package                            1                 -915947.38                     1_GWF-SFR-(206)-inflow
 Model                              2          1 -1.30739863E-12       *                     1_GWF-(3,1934)
 Package                            2             8.26554740E-07       *             1_GWF-SFR-(206)-inflow
 ----------------------------------------------------------------------------------------------------------


 2 CALLS TO NUMERICAL SOLUTION IN TIME STEP 46 STRESS PERIOD 2
 2 TOTAL ITERATIONS

 OUTER ITERATION SUMMARY
 ----------------------------------------------------------------------------------------------------------
                                OUTER      INNER                    STEP   MAXIMUM CHANGE MODEL-(CELLID) OR
 OUTER ITERATION STEP       ITERATION  ITERATION  MAXIMUM CHANGE SUCCESS             MODEL-PACKAGE-(NUMBER)
 ----------------------------------------------------------------------------------------------------------
 Model                              1          1 -1.27897692E-12       *                     1_GWF-(3,2006)
 Package                            1                 -915947.38                     1_GWF-SFR-(206)-inflow
 Model                              2          1 -1.25055521E-12       *                     1_GWF-(3,1590)
 Package                            2             6.90804535E-07       *             1_GWF-SFR-(206)-inflow
 ----------------------------------------------------------------------------------------------------------


 2 CALLS TO NUMERICAL SOLUTION IN TIME STEP 47 STRESS PERIOD 2
 2 TOTAL ITERATIONS

 OUTER ITERATION SUMMARY
 ----------------------------------------------------------------------------------------------------------
                                OUTER      INNER                    STEP   MAXIMUM CHANGE MODEL-(CELLID) OR
 OUTER ITERATION STEP       ITERATION  ITERATION  MAXIMUM CHANGE SUCCESS             MODEL-PACKAGE-(NUMBER)
 ----------------------------------------------------------------------------------------------------------
 Model                              1          1 -1.19371180E-12       *                     1_GWF-(3,1697)
 Package                            1                 -915947.38                     1_GWF-SFR-(206)-inflow
 Model                              2          1 -1.16529009E-12       *                     1_GWF-(3,1861)
 Package                            2             7.62137612E-07       *             1_GWF-SFR-(206)-inflow
 ----------------------------------------------------------------------------------------------------------


 2 CALLS TO NUMERICAL SOLUTION IN TIME STEP 48 STRESS PERIOD 2
 2 TOTAL ITERATIONS

 MEMORY MANAGER TOTAL STORAGE BY DATA TYPE, IN MEGABYTES
 -------------------------------
                    ALLOCATED   
 DATA TYPE           MEMORY     
 -------------------------------
 Character        1.98730000E-02
 Logical          4.40000000E-05
 Integer          2.0605640     
 Real             4.8502000     
 -------------------------------
 Total            6.9306810     
 -------------------------------


 
 Run end date and time (yyyy/mm/dd hh:mm:ss): 2021/11/04 11:01:56
 Elapsed run time:  2.459 Seconds
 Normal termination of simulation.
