                                   MODFLOW 6
                U.S. GEOLOGICAL SURVEY MODULAR HYDROLOGIC MODEL
                            VERSION 6.2.1 02/18/2021

   MODFLOW 6 compiled Feb 18 2021 21:14:51 with IFORT compiler (ver. 19.10.3)

This software has been approved for release by the U.S. Geological 
Survey (USGS). Although the software has been subjected to rigorous 
review, the USGS reserves the right to update the software as needed 
pursuant to further analysis and review. No warranty, expressed or 
implied, is made by the USGS or the U.S. Government as to the 
functionality of the software and related material nor shall the 
fact of release constitute any such warranty. Furthermore, the 
software is released on condition that neither the USGS nor the U.S. 
Government shall be held liable for any damages resulting from its 
authorized or unauthorized use. Also refer to the USGS Water 
Resources Software User Rights Notice for complete use, copyright, 
and distribution information.


System command used to initiate simulation:
..\bins\win\mf6

MODFLOW was compiled using uniform precision.

Real Variables
  KIND: 8
  TINY (smallest non-zero value):    2.225074-308
  HUGE (largest value):    1.797693+308
  PRECISION: 15
  BIT SIZE: 64

Integer Variables
  KIND: 4
  HUGE (largest value): 2147483647
  BIT SIZE: 32

Long Integer Variables
  KIND: 8
  HUGE (largest value): 9223372036854775807
  BIT SIZE: 64

Logical Variables
  KIND: 4
  BIT SIZE: 32
 

 OPENED mfsim.nam
 FILE TYPE:NAM   UNIT 1001   STATUS:OLD                 
 FORMAT:FORMATTED              ACCESS:SEQUENTIAL          
 ACTION:READ                

 # File generated by Flopy version 3.3.5 on 01/14/2022 at 23:25:35.

 READING SIMULATION OPTIONS
    SIMULATION WILL CONTINUE EVEN IF THERE IS NONCONVERGENCE.
 END OF SIMULATION OPTIONS

 READING SIMULATION TIMING

 OPENED hagfors_1.tdis
 FILE TYPE:TDIS   UNIT 1002   STATUS:OLD                 
 FORMAT:FORMATTED              ACCESS:SEQUENTIAL          
 ACTION:READ                


 TDIS -- TEMPORAL DISCRETIZATION PACKAGE,
 VERSION 1 : 11/13/2014 - INPUT READ FROM UNIT 1002
 # File generated by Flopy version 3.3.5 on 01/14/2022 at 23:25:35.
 PROCESSING TDIS OPTIONS
    SIMULATION TIME UNIT IS DAYS
    SIMULATION STARTING DATE AND TIME IS 2015-12-31                    
 END OF TDIS OPTIONS
 PROCESSING TDIS DIMENSIONS
    2 STRESS PERIOD(S) IN SIMULATION
 END OF TDIS DIMENSIONS
 PROCESSING TDIS PERIODDATA


 STRESS PERIOD     LENGTH       TIME STEPS     MULTIPLIER FOR DELT
 ----------------------------------------------------------------------------
        1         0.000000          1                    1.000
        2         1460.000         48                    1.000

 PERLEN IS ZERO FOR STRESS PERIOD 1. PERLEN MUST NOT BE ZERO FOR TRANSIENT PERIODS.
 END OF TDIS PERIODDATA
 END OF SIMULATION TIMING

 READING SIMULATION MODELS
    GWF6 model HAGFORS_1 will be created as model 1
 END OF SIMULATION MODELS

 READING SIMULATION EXCHANGES
 END OF SIMULATION EXCHANGES

 READING SOLUTIONGROUP

 Creating solution: SLN_1           

 OPENED hagfors_1.ims
 FILE TYPE:IMS   UNIT 1014   STATUS:OLD                 
 FORMAT:FORMATTED              ACCESS:SEQUENTIAL          
 ACTION:READ                

 END OF SIMULATION SOLUTIONGROUP

 IMS -- ITERATIVE MODEL SOLUTION PACKAGE, VERSION 6, 4/28/2017
         INPUT READ FROM UNIT 1014
 # File generated by Flopy version 3.3.5 on 01/14/2022 at 23:25:35.

 PROCESSING IMS OPTIONS
 SIMPLE OPTION:
 DEFAULT SOLVER INPUT VALUES FOR FAST SOLUTIONS
 END OF IMS OPTIONS

 PROCESSING IMS NONLINEAR
 END OF IMS NONLINEAR DATA
 ***UNDER-RELAXATION WILL NOT BE USED***
 
 ***IMS LINEAR SOLVER WILL BE USED***

 IMSLINEAR -- UNSTRUCTURED LINEAR SOLUTION PACKAGE, VERSION 8, 04/28/2017

 PROCESSING LINEAR DATA
 END OF LINEAR DATA
 
 OUTER ITERATION CONVERGENCE CRITERION    (DVCLOSE) =    0.100000E-01
 MAXIMUM NUMBER OF OUTER ITERATIONS        (MXITER) = 750
 SOLVER PRINTOUT INDEX                     (IPRIMS) = 1
 NONLINEAR ITERATION METHOD            (NONLINMETH) = 0
 LINEAR SOLUTION METHOD                   (LINMETH) = 1

       SOLUTION BY THE BICONJUGATE-GRADIENT STABILIZED METHOD
 ------------------------------------------------------------------
 MAXIMUM OF 750 CALLS OF SOLUTION ROUTINE
 MAXIMUM OF 50 INTERNAL ITERATIONS PER CALL TO SOLUTION ROUTINE
 LINEAR ACCELERATION METHOD            = BCGS      
 MATRIX PRECONDITIONING TYPE           = INCOMPLETE LU       
 MATRIX SCALING APPROACH               = NO SCALING          
 MATRIX REORDERING APPROACH            = ORIGINAL ORDERING        
 NUMBER OF ORTHOGONALIZATIONS          = 0
 HEAD CHANGE CRITERION FOR CLOSURE     =    0.10000E-02
 RESIDUAL CHANGE CRITERION FOR CLOSURE =    0.10000E+00
 RESIDUAL CONVERGENCE OPTION           = 0
 RESIDUAL CONVERGENCE NORM             = INFINITY NORM   
 RELAXATION FACTOR                     =    0.00000E+00



1
                            STRESS PERIOD NO.    1, LENGTH =   0.000000    
                            -----------------------------------------------

                              NUMBER OF TIME STEPS =     1

                               MULTIPLIER FOR DELT =     1.000

                            INITIAL TIME STEP SIZE =   0.000000    



 PSEUDO-TRANSIENT CONTINUATION WILL BE APPLIED TO MODEL 1 ("HAGFORS_1") DURING THIS TIME STEP

 OUTER ITERATION SUMMARY
 ----------------------------------------------------------------------------------------------------------
                                OUTER      INNER                    STEP   MAXIMUM CHANGE MODEL-(CELLID) OR
 OUTER ITERATION STEP       ITERATION  ITERATION  MAXIMUM CHANGE SUCCESS             MODEL-PACKAGE-(NUMBER)
 ----------------------------------------------------------------------------------------------------------
 Model                              1         12      0.91717612                              1_GWF-(1,344)
 Model                              2         14      0.62381380                             1_GWF-(1,2357)
 Model                              3         14      0.78715556                             1_GWF-(1,2355)
 Model                              4         13      0.81236516                             1_GWF-(1,2351)
 Model                              5         14      0.84210092                             1_GWF-(1,2468)
 Model                              6         13      0.56228254                             1_GWF-(1,2464)
 Model                              7         13      0.29503982                             1_GWF-(1,2463)
 Model                              8         12      0.28255562                             1_GWF-(1,2461)
 Model                              9         10  6.64248876E-02                             1_GWF-(1,1241)
 Model                             10         10  2.34016868E-02                             1_GWF-(1,1239)
 Model                             11          3  3.03449045E-03       *                     1_GWF-(1,1383)
 Package                           11            -3.60721953E-03       *              1_GWF-SFR-(236)-stage
 ----------------------------------------------------------------------------------------------------------


 11 CALLS TO NUMERICAL SOLUTION IN TIME STEP 1 STRESS PERIOD 1
 128 TOTAL ITERATIONS
1
                            STRESS PERIOD NO.    2, LENGTH =   1460.000    
                            -----------------------------------------------

                              NUMBER OF TIME STEPS =    48

                               MULTIPLIER FOR DELT =     1.000

                            INITIAL TIME STEP SIZE =   30.41667    

 OUTER ITERATION SUMMARY
 ----------------------------------------------------------------------------------------------------------
                                OUTER      INNER                    STEP   MAXIMUM CHANGE MODEL-(CELLID) OR
 OUTER ITERATION STEP       ITERATION  ITERATION  MAXIMUM CHANGE SUCCESS             MODEL-PACKAGE-(NUMBER)
 ----------------------------------------------------------------------------------------------------------
 Model                              1         11  2.39693923E-02                              1_GWF-(1,343)
 Model                              2          2  1.24869350E-03       *                       1_GWF-(1,61)
 Package                            2                 -37482.816                     1_GWF-SFR-(206)-inflow
 Model                              3          1  3.69503959E-04       *                       1_GWF-(1,96)
 Package                            3                 -13353.441                     1_GWF-SFR-(206)-inflow
 Model                              4          1  2.81736488E-04       *                       1_GWF-(1,98)
 Package                            4                 -4179.2566                     1_GWF-SFR-(206)-inflow
 Model                              5          1  2.47641954E-04       *                       1_GWF-(1,72)
 Package                            5                 -2783.8294                     1_GWF-SFR-(206)-inflow
 Model                              6          1  2.19938921E-04       *                      1_GWF-(1,106)
 Package                            6                 -1857.9733                     1_GWF-SFR-(206)-inflow
 Model                              7          1  2.06133336E-04       *                      1_GWF-(1,936)
 Package                            7                 -1293.6494                     1_GWF-SFR-(206)-inflow
 Model                              8          1  1.98856398E-04       *                      1_GWF-(1,934)
 Package                            8                 -926.44583                     1_GWF-SFR-(206)-inflow
 Model                              9          1  1.91134138E-04       *                     1_GWF-(1,1099)
 Package                            9                 -684.83812                     1_GWF-SFR-(206)-inflow
 Model                             10          1  1.87162676E-04       *                     1_GWF-(1,1180)
 Package                           10                 -508.86793                     1_GWF-SFR-(206)-inflow
 Model                             11          1  1.75745749E-04       *                     1_GWF-(1,1270)
 Package                           11                 -388.59717                     1_GWF-SFR-(206)-inflow
 Model                             12          1  1.62006512E-04       *                     1_GWF-(1,1271)
 Package                           12                 -286.82315                     1_GWF-SFR-(206)-inflow
 Model                             13          1  1.21828109E-04       *                     1_GWF-(1,1179)
 Package                           13                 -223.32350                     1_GWF-SFR-(206)-inflow
 Model                             14          1  7.96453079E-05       *                     1_GWF-(1,1364)
 Package                           14                 -144.42713                     1_GWF-SFR-(206)-inflow
 Model                             15          1  3.15168626E-05       *                     1_GWF-(1,1181)
 Package                           15                 -98.633289                     1_GWF-SFR-(206)-inflow
 Model                             16          1  4.71578182E-05       *                     1_GWF-(1,1364)
 Package                           16                 -18.764630                     1_GWF-SFR-(206)-inflow
 Model                             17          1  2.18613866E-05       *                     1_GWF-(1,1180)
 Package                           17                 -57.687832                     1_GWF-SFR-(206)-inflow
 Model                             18          1  4.36305311E-05       *                     1_GWF-(1,1364)
 Package                           18                 -11.763640                     1_GWF-SFR-(206)-inflow
 Model                             19          1  1.36627584E-05       *                     1_GWF-(1,1180)
 Package                           19                 -50.546907                     1_GWF-SFR-(206)-inflow
 Model                             20          1  5.19797516E-05       *                     1_GWF-(1,1364)
 Package                           20                 -6.6962858                     1_GWF-SFR-(206)-inflow
 Model                             21          1  6.91790476E-06       *                     1_GWF-(1,1180)
 Package                           21                 -57.186825                     1_GWF-SFR-(206)-inflow
 Model                             22          1  7.12349981E-05       *                     1_GWF-(1,1271)
 Package                           22                 -3.3680054                     1_GWF-SFR-(206)-inflow
 Model                             23          1  1.55935086E-06       *                       1_GWF-(1,13)
 Package                           23                 -76.616161                     1_GWF-SFR-(206)-inflow
 Model                             24          1  6.40651299E-06       *                     1_GWF-(1,1455)
 Package                           24                 -2.0868405                     1_GWF-SFR-(206)-inflow
 Model                             25          1  1.19677424E-06       *                     1_GWF-(1,1278)
 Package                           25                -0.98792539                      1_GWF-SFR-(46)-inflow
 Model                             26          1  2.98120415E-06       *                     1_GWF-(1,1456)
 Package                           26                 -3.0385340                     1_GWF-SFR-(206)-inflow
 Model                             27          1  7.44753834E-07       *                     1_GWF-(1,1183)
 Package                           27                 -4.2438110                     1_GWF-SFR-(206)-inflow
 Model                             28          1  3.07167494E-06       *                     1_GWF-(1,1456)
 Package                           28                -0.40979100                     1_GWF-SFR-(217)-inflow
 Model                             29          1  3.82471228E-07       *                     1_GWF-(1,1278)
 Package                           29                 -2.3361848                     1_GWF-SFR-(206)-inflow
 Model                             30          1  2.81585938E-06       *                     1_GWF-(1,1367)
 Package                           30                -0.55955328                     1_GWF-SFR-(206)-inflow
 Model                             31          1  1.65890640E-07       *                     1_GWF-(1,1184)
 Package                           31                 -2.6225247                     1_GWF-SFR-(206)-inflow
 Model                             32          1  2.00745166E-06       *                     1_GWF-(1,1270)
 Package                           32                -0.24513549                     1_GWF-SFR-(206)-inflow
 Model                             33          1  1.07827589E-07       *                      1_GWF-(1,320)
 Package                           33                 -1.2255303                     1_GWF-SFR-(206)-inflow
 Model                             34          1 -1.03881831E-07       *                       1_GWF-(1,47)
 Package                           34                -0.24873485                     1_GWF-SFR-(206)-inflow
 Model                             35          1  6.03326100E-08       *                     1_GWF-(1,1650)
 Package                           35                -0.38735915                     1_GWF-SFR-(206)-inflow
 Model                             36          1  1.95497961E-07       *                     1_GWF-(1,1271)
 Package                           36            -8.29965773E-02                     1_GWF-SFR-(206)-inflow
 Model                             37          1  2.98921350E-08       *                     1_GWF-(1,1018)
 Package                           37                -0.12154410                     1_GWF-SFR-(206)-inflow
 Model                             38          1  7.93269237E-08       *                     1_GWF-(1,1270)
 Package                           38            -4.85531833E-02                     1_GWF-SFR-(206)-inflow
 Model                             39          1  2.08775646E-08       *                     1_GWF-(1,1452)
 Package                           39            -6.52243431E-02                     1_GWF-SFR-(206)-inflow
 Model                             40          1  3.44225839E-08       *                     1_GWF-(1,1270)
 Package                           40            -1.47533741E-02                     1_GWF-SFR-(206)-inflow
 Model                             41          1  1.82824635E-08       *                     1_GWF-(1,1011)
 Package                           41            -3.30690984E-02                     1_GWF-SFR-(206)-inflow
 Model                             42          1  2.06352411E-08       *                     1_GWF-(1,1270)
 Package                           42            -1.06171520E-02                     1_GWF-SFR-(206)-inflow
 Model                             43          1  1.66457994E-08       *                     1_GWF-(1,1453)
 Package                           43            -1.99495521E-02                     1_GWF-SFR-(206)-inflow
 Model                             44          1  1.36116967E-08       *                     1_GWF-(1,1270)
 Package                           44            -1.04333845E-02                     1_GWF-SFR-(206)-inflow
 Model                             45          1  1.54564361E-08       *                     1_GWF-(1,1454)
 Package                           45            -1.35590000E-02                     1_GWF-SFR-(206)-inflow
 Model                             46          1  9.05561137E-09       *                     1_GWF-(1,1270)
 Package                           46            -1.01111432E-02                     1_GWF-SFR-(206)-inflow
 Model                             47          1  1.52512030E-08       *                     1_GWF-(1,1454)
 Package                           47            -9.39532502E-03       *             1_GWF-SFR-(206)-inflow
 ----------------------------------------------------------------------------------------------------------


 47 CALLS TO NUMERICAL SOLUTION IN TIME STEP 1 STRESS PERIOD 2
 58 TOTAL ITERATIONS

 OUTER ITERATION SUMMARY
 ----------------------------------------------------------------------------------------------------------
                                OUTER      INNER                    STEP   MAXIMUM CHANGE MODEL-(CELLID) OR
 OUTER ITERATION STEP       ITERATION  ITERATION  MAXIMUM CHANGE SUCCESS             MODEL-PACKAGE-(NUMBER)
 ----------------------------------------------------------------------------------------------------------
 Model                              1         14     -0.14115732                              1_GWF-(1,344)
 Model                              2          5 -6.01571130E-03       *                     1_GWF-(1,2556)
 Package                            2                  126394.80                      1_GWF-SFR-(46)-inflow
 Model                              3          2 -1.81478836E-03       *                     1_GWF-(1,1715)
 Package                            3                  56694.603                     1_GWF-SFR-(206)-inflow
 Model                              4          2 -1.07259069E-03       *                     1_GWF-(1,1951)
 Package                            4                  25456.619                     1_GWF-SFR-(206)-inflow
 Model                              5          1 -3.45309798E-04       *                      1_GWF-(1,130)
 Package                            5                  12725.030                     1_GWF-SFR-(206)-inflow
 Model                              6          1 -3.80107205E-04       *                     1_GWF-(1,1205)
 Package                            6                  3666.0921                     1_GWF-SFR-(206)-inflow
 Model                              7          1 -3.39224583E-04       *                     1_GWF-(1,1123)
 Package                            7                  3176.8524                     1_GWF-SFR-(206)-inflow
 Model                              8          1 -4.82027647E-04       *                     1_GWF-(1,1020)
 Package                            8                  1720.9176                     1_GWF-SFR-(206)-inflow
 Model                              9          1 -2.62316165E-04       *                     1_GWF-(1,1181)
 Package                            9                  1932.1172                     1_GWF-SFR-(206)-inflow
 Model                             10          1 -5.99564133E-04       *                     1_GWF-(1,1098)
 Package                           10                  767.89288                     1_GWF-SFR-(206)-inflow
 Model                             11          1 -1.40464318E-04       *                     1_GWF-(1,1367)
 Package                           11                  1436.4737                     1_GWF-SFR-(206)-inflow
 Model                             12          1 -5.16432882E-04       *                     1_GWF-(1,1365)
 Package                           12                  233.50892                     1_GWF-SFR-(206)-inflow
 Model                             13          1 -6.14887592E-05       *                     1_GWF-(1,1368)
 Package                           13                  778.86710                     1_GWF-SFR-(206)-inflow
 Model                             14          1 -3.89122376E-04       *                     1_GWF-(1,1454)
 Package                           14                  84.256112                     1_GWF-SFR-(206)-inflow
 Model                             15          1 -3.04625786E-05       *                     1_GWF-(1,1368)
 Package                           15                  454.29787                     1_GWF-SFR-(206)-inflow
 Model                             16          1 -1.92302240E-04       *                     1_GWF-(1,1271)
 Package                           16                  75.337418                     1_GWF-SFR-(206)-inflow
 Model                             17          1 -1.71260899E-05       *                     1_GWF-(1,1274)
 Package                           17                  237.89742                     1_GWF-SFR-(206)-inflow
 Model                             18          1 -9.42700436E-05       *                     1_GWF-(1,1364)
 Package                           18                  18.486181                     1_GWF-SFR-(206)-inflow
 Model                             19          1 -9.81153792E-06       *                     1_GWF-(1,1274)
 Package                           19                  81.639850                     1_GWF-SFR-(206)-inflow
 Model                             20          1 -5.13679843E-05       *                     1_GWF-(1,1271)
 Package                           20                  26.559663                     1_GWF-SFR-(206)-inflow
 Model                             21          1 -5.31632784E-06       *                     1_GWF-(1,1764)
 Package                           21                  70.931527                     1_GWF-SFR-(206)-inflow
 Model                             22          1 -2.55402168E-05       *                     1_GWF-(1,1183)
 Package                           22                  2.6126891                      1_GWF-SFR-(46)-inflow
 Model                             23          1 -4.00309943E-06       *                     1_GWF-(1,1367)
 Package                           23                  8.2531246                      1_GWF-SFR-(46)-inflow
 Model                             24          1 -1.02528700E-05       *                     1_GWF-(1,1271)
 Package                           24                  13.564842                     1_GWF-SFR-(206)-inflow
 Model                             25          1 -3.06639967E-06       *                     1_GWF-(1,1764)
 Package                           25                  19.600691                     1_GWF-SFR-(206)-inflow
 Model                             26          1 -8.07700357E-06       *                     1_GWF-(1,1364)
 Package                           26                  1.0792355                      1_GWF-SFR-(46)-inflow
 Model                             27          1 -1.68722627E-06       *                     1_GWF-(1,1367)
 Package                           27                  5.7366112                     1_GWF-SFR-(206)-inflow
 Model                             28          1 -7.18208076E-06       *                     1_GWF-(1,1364)
 Package                           28                  2.7920749                     1_GWF-SFR-(206)-inflow
 Model                             29          1 -1.01342695E-06       *                     1_GWF-(1,1367)
 Package                           29                  7.3527361                     1_GWF-SFR-(206)-inflow
 Model                             30          1 -6.23795472E-06       *                     1_GWF-(1,1364)
 Package                           30                  1.3802510                     1_GWF-SFR-(206)-inflow
 Model                             31          1 -4.88965270E-07       *                     1_GWF-(1,1367)
 Package                           31                  4.7937851                     1_GWF-SFR-(206)-inflow
 Model                             32          1 -3.59703691E-06       *                     1_GWF-(1,1364)
 Package                           32                  1.1493654                     1_GWF-SFR-(206)-inflow
 Model                             33          1 -3.54080896E-07       *                      1_GWF-(1,109)
 Package                           33                  4.9818116                     1_GWF-SFR-(206)-inflow
 Model                             34          1 -9.13721863E-07       *                      1_GWF-(1,677)
 Package                           34             6.43225653E-02                      1_GWF-SFR-(46)-inflow
 Model                             35          1 -4.64412210E-07       *                       1_GWF-(1,39)
 Package                           35                -0.71749075                     1_GWF-SFR-(206)-inflow
 Model                             36          1 -2.59588774E-07       *                     1_GWF-(1,1277)
 Package                           36                 0.83985022                     1_GWF-SFR-(206)-inflow
 Model                             37          1 -3.22035078E-07       *                     1_GWF-(1,1094)
 Package                           37                 0.45340580                     1_GWF-SFR-(206)-inflow
 Model                             38          1 -1.87161959E-07       *                     1_GWF-(1,1183)
 Package                           38                 0.13622387                     1_GWF-SFR-(217)-inflow
 Model                             39          1 -1.86044986E-07       *                     1_GWF-(1,1367)
 Package                           39                 0.29687476                     1_GWF-SFR-(206)-inflow
 Model                             40          1 -1.76324590E-07       *                     1_GWF-(1,1364)
 Package                           40                 0.10147402                     1_GWF-SFR-(206)-inflow
 Model                             41          1 -1.24330825E-07       *                     1_GWF-(1,1367)
 Package                           41                 0.20138386                     1_GWF-SFR-(206)-inflow
 Model                             42          1 -1.63044547E-07       *                     1_GWF-(1,1364)
 Package                           42             7.76122073E-02                     1_GWF-SFR-(206)-inflow
 Model                             43          1 -8.47905142E-08       *                     1_GWF-(1,1367)
 Package                           43                 0.16496655                     1_GWF-SFR-(206)-inflow
 Model                             44          1 -1.52107447E-07       *                     1_GWF-(1,1364)
 Package                           44             5.53685447E-02                     1_GWF-SFR-(206)-inflow
 Model                             45          1 -5.58421505E-08       *                     1_GWF-(1,1367)
 Package                           45                 0.14494122                     1_GWF-SFR-(206)-inflow
 Model                             46          1 -1.51502860E-07       *                     1_GWF-(1,1364)
 Package                           46             3.76734039E-02                     1_GWF-SFR-(206)-inflow
 Model                             47          1 -3.35412267E-08       *                     1_GWF-(1,1367)
 Package                           47                 0.13781211                     1_GWF-SFR-(206)-inflow
 Model                             48          1 -1.73074824E-07       *                     1_GWF-(1,1364)
 Package                           48             2.48941413E-02                     1_GWF-SFR-(206)-inflow
 Model                             49          1 -1.61029448E-08       *                     1_GWF-(1,1367)
 Package                           49                 0.15100805                     1_GWF-SFR-(206)-inflow
 Model                             50          1 -1.99737457E-07       *                     1_GWF-(1,1271)
 Package                           50             1.72923211E-02                     1_GWF-SFR-(206)-inflow
 Model                             51          1 -3.48600793E-09       *                       1_GWF-(1,14)
 Package                           51                 0.16962350                     1_GWF-SFR-(206)-inflow
 Model                             52          1 -6.86924295E-09       *                     1_GWF-(1,1455)
 Package                           52             1.36932295E-02                     1_GWF-SFR-(206)-inflow
 Model                             53          1 -3.91949584E-09       *                     1_GWF-(1,1277)
 Package                           53             6.53366802E-03       *             1_GWF-SFR-(206)-inflow
 ----------------------------------------------------------------------------------------------------------


 53 CALLS TO NUMERICAL SOLUTION IN TIME STEP 2 STRESS PERIOD 2
 72 TOTAL ITERATIONS

 OUTER ITERATION SUMMARY
 ----------------------------------------------------------------------------------------------------------
                                OUTER      INNER                    STEP   MAXIMUM CHANGE MODEL-(CELLID) OR
 OUTER ITERATION STEP       ITERATION  ITERATION  MAXIMUM CHANGE SUCCESS             MODEL-PACKAGE-(NUMBER)
 ----------------------------------------------------------------------------------------------------------
 Model                              1         13 -7.17684937E-02                              1_GWF-(1,343)
 Model                              2          3 -3.41955131E-03       *                     1_GWF-(1,2556)
 Package                            2                  65700.670                      1_GWF-SFR-(46)-inflow
 Model                              3          2 -1.04013628E-03       *                     1_GWF-(1,2556)
 Package                            3                  29704.987                     1_GWF-SFR-(206)-inflow
 Model                              4          1 -3.74076719E-04       *                      1_GWF-(1,130)
 Package                            4                  14353.665                     1_GWF-SFR-(206)-inflow
 Model                              5          1 -3.22504427E-04       *                     1_GWF-(1,2434)
 Package                            5                  4720.9125                     1_GWF-SFR-(206)-inflow
 Model                              6          1 -3.35466738E-04       *                     1_GWF-(1,2330)
 Package                            6                  3410.8063                     1_GWF-SFR-(206)-inflow
 Model                              7          1 -3.40469556E-04       *                     1_GWF-(1,2330)
 Package                            7                  2272.0727                     1_GWF-SFR-(206)-inflow
 Model                              8          1 -2.78868232E-04       *                     1_GWF-(1,2329)
 Package                            8                  1710.6824                     1_GWF-SFR-(206)-inflow
 Model                              9          1 -2.69755481E-04       *                      1_GWF-(1,933)
 Package                            9                  1205.1817                     1_GWF-SFR-(206)-inflow
 Model                             10          1 -2.36082069E-04       *                     1_GWF-(1,1098)
 Package                           10                  980.84573                     1_GWF-SFR-(206)-inflow
 Model                             11          1 -2.69833331E-04       *                     1_GWF-(1,1179)
 Package                           11                  670.68898                     1_GWF-SFR-(206)-inflow
 Model                             12          1 -2.00267265E-04       *                     1_GWF-(1,1270)
 Package                           12                  604.81848                     1_GWF-SFR-(206)-inflow
 Model                             13          1 -2.40432967E-04       *                     1_GWF-(1,1271)
 Package                           13                  352.99628                     1_GWF-SFR-(206)-inflow
 Model                             14          1 -9.75890897E-05       *                     1_GWF-(1,1274)
 Package                           14                  372.89058                     1_GWF-SFR-(206)-inflow
 Model                             15          1 -9.28066142E-05       *                     1_GWF-(1,1453)
 Package                           15                  118.45898                     1_GWF-SFR-(206)-inflow
 Model                             16          1 -5.58629881E-05       *                     1_GWF-(1,1274)
 Package                           16                  133.03593                     1_GWF-SFR-(206)-inflow
 Model                             17          1 -7.01081661E-05       *                     1_GWF-(1,1453)
 Package                           17                  52.713982                     1_GWF-SFR-(206)-inflow
 Model                             18          1 -3.97784171E-05       *                     1_GWF-(1,1368)
 Package                           18                  94.430783                     1_GWF-SFR-(206)-inflow
 Model                             19          1 -5.62826986E-05       *                     1_GWF-(1,1453)
 Package                           19                  34.038923                     1_GWF-SFR-(206)-inflow
 Model                             20          1 -2.88556379E-05       *                     1_GWF-(1,1368)
 Package                           20                  69.688915                     1_GWF-SFR-(206)-inflow
 Model                             21          1 -4.81926326E-05       *                     1_GWF-(1,1453)
 Package                           21                  23.948668                     1_GWF-SFR-(206)-inflow
 Model                             22          1 -2.04181874E-05       *                     1_GWF-(1,1368)
 Package                           22                  56.084709                     1_GWF-SFR-(206)-inflow
 Model                             23          1 -4.35735872E-05       *                     1_GWF-(1,1453)
 Package                           23                  17.199322                     1_GWF-SFR-(206)-inflow
 Model                             24          1 -1.35370063E-05       *                     1_GWF-(1,1368)
 Package                           24                  48.134968                     1_GWF-SFR-(206)-inflow
 Model                             25          1 -4.38959164E-05       *                     1_GWF-(1,1453)
 Package                           25                  12.109036                     1_GWF-SFR-(206)-inflow
 Model                             26          1 -7.98956236E-06       *                     1_GWF-(1,1920)
 Package                           26                  46.317390                     1_GWF-SFR-(206)-inflow
 Model                             27          1 -5.21496634E-05       *                     1_GWF-(1,1364)
 Package                           27                  8.5669015                     1_GWF-SFR-(206)-inflow
 Model                             28          1 -3.42181838E-06       *                     1_GWF-(1,1847)
 Package                           28                  53.005997                     1_GWF-SFR-(206)-inflow
 Model                             29          1 -2.85529845E-05       *                     1_GWF-(1,1270)
 Package                           29                  6.9180648                     1_GWF-SFR-(206)-inflow
 Model                             30          1 -1.38168713E-06       *                     1_GWF-(1,1654)
 Package                           30                  28.638816                     1_GWF-SFR-(206)-inflow
 Model                             31          1 -6.39264672E-06       *                     1_GWF-(1,1555)
 Package                           31                  2.0103471                     1_GWF-SFR-(206)-inflow
 Model                             32          1 -7.27306514E-07       *                     1_GWF-(1,1920)
 Package                           32                  7.3620217                     1_GWF-SFR-(206)-inflow
 Model                             33          1 -5.26243852E-06       *                     1_GWF-(1,1179)
 Package                           33                 0.12206818                     1_GWF-SFR-(206)-inflow
 Model                             34          1 -1.88064377E-07       *                     1_GWF-(1,1364)
 Package                           34                  3.7498502                     1_GWF-SFR-(206)-inflow
 Model                             35          1 -3.83217326E-07       *                     1_GWF-(1,1454)
 Package                           35                 0.77732597                     1_GWF-SFR-(206)-inflow
 Model                             36          1 -2.20393758E-07       *                     1_GWF-(1,1016)
 Package                           36                 0.99693217                     1_GWF-SFR-(206)-inflow
 Model                             37          1 -4.49632267E-07       *                     1_GWF-(1,1455)
 Package                           37                 0.13500225                     1_GWF-SFR-(217)-inflow
 Model                             38          1 -1.34371135E-07       *                     1_GWF-(1,1098)
 Package                           38                 0.29321195                     1_GWF-SFR-(206)-inflow
 Model                             39          1 -3.49880509E-07       *                     1_GWF-(1,1454)
 Package                           39                 0.17171379                     1_GWF-SFR-(217)-inflow
 Model                             40          1 -8.91698448E-08       *                     1_GWF-(1,1098)
 Package                           40                 0.22918098                     1_GWF-SFR-(206)-inflow
 Model                             41          1 -2.70097587E-07       *                     1_GWF-(1,1556)
 Package                           41                 0.10257984                     1_GWF-SFR-(217)-inflow
 Model                             42          1 -5.10450775E-08       *                     1_GWF-(1,1098)
 Package                           42                 0.22630193                     1_GWF-SFR-(206)-inflow
 Model                             43          1 -2.74293882E-07       *                     1_GWF-(1,1271)
 Package                           43             4.11094889E-02                     1_GWF-SFR-(217)-inflow
 Model                             44          1 -1.90503044E-08       *                     1_GWF-(1,1098)
 Package                           44                 0.24425143                     1_GWF-SFR-(206)-inflow
 Model                             45          1 -1.38337583E-07       *                     1_GWF-(1,1180)
 Package                           45             1.37880201E-02                     1_GWF-SFR-(217)-inflow
 Model                             46          1 -1.04793401E-08       *                      1_GWF-(1,937)
 Package                           46                 0.10278410                     1_GWF-SFR-(206)-inflow
 Model                             47          1 -3.30961427E-08       *                     1_GWF-(1,1552)
 Package                           47             1.70135925E-02                     1_GWF-SFR-(206)-inflow
 Model                             48          1 -8.44755732E-09       *                     1_GWF-(1,2513)
 Package                           48             2.52826880E-02                     1_GWF-SFR-(206)-inflow
 Model                             49          1 -1.72251475E-08       *                     1_GWF-(1,1557)
 Package                           49             4.88600137E-03       *             1_GWF-SFR-(217)-inflow
 ----------------------------------------------------------------------------------------------------------


 49 CALLS TO NUMERICAL SOLUTION IN TIME STEP 3 STRESS PERIOD 2
 64 TOTAL ITERATIONS

 OUTER ITERATION SUMMARY
 ----------------------------------------------------------------------------------------------------------
                                OUTER      INNER                    STEP   MAXIMUM CHANGE MODEL-(CELLID) OR
 OUTER ITERATION STEP       ITERATION  ITERATION  MAXIMUM CHANGE SUCCESS             MODEL-PACKAGE-(NUMBER)
 ----------------------------------------------------------------------------------------------------------
 Model                              1         15      0.25555654                              1_GWF-(1,344)
 Model                              2          8  1.19013203E-02                             1_GWF-(1,2556)
 Model                              3          4  3.69616901E-03       *                     1_GWF-(1,1957)
 Package                            3                 -107905.97                     1_GWF-SFR-(206)-inflow
 Model                              4          3  1.79183464E-03       *                      1_GWF-(1,242)
 Package                            4                 -54190.595                     1_GWF-SFR-(206)-inflow
 Model                              5          2  8.07762552E-04       *                      1_GWF-(1,204)
 Package                            5                 -22919.210                     1_GWF-SFR-(206)-inflow
 Model                              6          1  2.52574219E-04       *                      1_GWF-(1,130)
 Package                            6                 -8209.3079                     1_GWF-SFR-(206)-inflow
 Model                              7          1  4.87271132E-04       *                      1_GWF-(1,853)
 Package                            7                 -2078.1364                     1_GWF-SFR-(206)-inflow
 Model                              8          1  2.74582293E-04       *                      1_GWF-(1,935)
 Package                            8                 -2625.1685                     1_GWF-SFR-(206)-inflow
 Model                              9          2  2.00070836E-03       *                     1_GWF-(1,1276)
 Package                            9                 -620.00322                     1_GWF-SFR-(206)-inflow
 Model                             10          1 -8.01392040E-05       *                      1_GWF-(1,142)
 Package                           10                 -3431.1713                     1_GWF-SFR-(206)-inflow
 Model                             11          1 -9.46384593E-05       *                      1_GWF-(1,110)
 Package                           11                 -562.29235                     1_GWF-SFR-(206)-inflow
 Model                             12          1  1.54455801E-04       *                     1_GWF-(1,1552)
 Package                           12                 -244.26560                     1_GWF-SFR-(206)-inflow
 Model                             13          1  1.18002555E-04       *                     1_GWF-(1,1015)
 Package                           13                  46.698323                     1_GWF-SFR-(217)-inflow
 Model                             14          1  4.92767681E-05       *                     1_GWF-(1,1271)
 Package                           14                 -49.454598                      1_GWF-SFR-(46)-inflow
 Model                             15          1  5.15080596E-05       *                     1_GWF-(1,1017)
 Package                           15                 -10.764391                      1_GWF-SFR-(46)-inflow
 Model                             16          1  3.09817300E-05       *                     1_GWF-(1,1270)
 Package                           16                 -73.769420                     1_GWF-SFR-(206)-inflow
 Model                             17          1  4.81643892E-05       *                     1_GWF-(1,1017)
 Package                           17                  9.7671068                     1_GWF-SFR-(206)-inflow
 Model                             18          1  1.66429382E-05       *                     1_GWF-(1,1457)
 Package                           18                 -64.607461                     1_GWF-SFR-(206)-inflow
 Model                             19          1  6.14550559E-05       *                     1_GWF-(1,1453)
 Package                           19                  5.1925304                     1_GWF-SFR-(206)-inflow
 Model                             20          1  8.66940070E-06       *                      1_GWF-(1,176)
 Package                           20                 -68.860769                     1_GWF-SFR-(206)-inflow
 Model                             21          1  6.28364397E-05       *                     1_GWF-(1,1364)
 Package                           21                  2.0913634                     1_GWF-SFR-(206)-inflow
 Model                             22          1  4.04235357E-06       *                     1_GWF-(1,1920)
 Package                           22                 -55.330835                     1_GWF-SFR-(206)-inflow
 Model                             23          1  2.66593122E-05       *                     1_GWF-(1,1096)
 Package                           23                 -7.6823506                     1_GWF-SFR-(206)-inflow
 Model                             24          1  2.33475396E-06       *                     1_GWF-(1,1555)
 Package                           24                 -27.610334                     1_GWF-SFR-(206)-inflow
 Model                             25          1  8.15687275E-06       *                     1_GWF-(1,1556)
 Package                           25                 -1.2347908                     1_GWF-SFR-(206)-inflow
 Model                             26          1  1.25448057E-06       *                     1_GWF-(1,2069)
 Package                           26                 -7.1328081                     1_GWF-SFR-(206)-inflow
 Model                             27          1  5.00099938E-06       *                     1_GWF-(1,1267)
 Package                           27                 -1.7521030                     1_GWF-SFR-(217)-inflow
 Model                             28          1  5.69176905E-07       *                     1_GWF-(1,1368)
 Package                           28                 -2.9338894                     1_GWF-SFR-(206)-inflow
 Model                             29          1  1.09787530E-06       *                     1_GWF-(1,1271)
 Package                           29                 -1.3481132                     1_GWF-SFR-(206)-inflow
 Model                             30          1  4.11498718E-07       *                     1_GWF-(1,1017)
 Package                           30                 -1.8418546                     1_GWF-SFR-(206)-inflow
 Model                             31          1  7.77998252E-07       *                     1_GWF-(1,1271)
 Package                           31                -0.10040226                      1_GWF-SFR-(46)-inflow
 Model                             32          1  2.40964624E-07       *                     1_GWF-(1,1097)
 Package                           32                -0.76053373                     1_GWF-SFR-(206)-inflow
 Model                             33          1  7.12568180E-07       *                     1_GWF-(1,1271)
 Package                           33                -0.15764103                     1_GWF-SFR-(217)-inflow
 Model                             34          1  1.48072274E-07       *                     1_GWF-(1,1098)
 Package                           34                -0.63166733                     1_GWF-SFR-(206)-inflow
 Model                             35          1  7.07828008E-07       *                     1_GWF-(1,1271)
 Package                           35                -0.12426577                     1_GWF-SFR-(206)-inflow
 Model                             36          1  7.47823776E-08       *                     1_GWF-(1,1098)
 Package                           36                -0.62664385                     1_GWF-SFR-(206)-inflow
 Model                             37          1  7.77990039E-07       *                     1_GWF-(1,1271)
 Package                           37            -7.10633344E-02                     1_GWF-SFR-(206)-inflow
 Model                             38          1  2.73133764E-08       *                      1_GWF-(1,186)
 Package                           38                -0.68701971                     1_GWF-SFR-(206)-inflow
 Model                             39          1  2.78406134E-07       *                     1_GWF-(1,1177)
 Package                           39            -4.57248327E-02                     1_GWF-SFR-(206)-inflow
 Model                             40          1  1.80402537E-08       *                     1_GWF-(1,1920)
 Package                           40                -0.20604866                     1_GWF-SFR-(206)-inflow
 Model                             41          1  5.34849960E-08       *                     1_GWF-(1,1849)
 Package                           41            -2.46500960E-02                     1_GWF-SFR-(206)-inflow
 Model                             42          1 -1.60231650E-08       *                       1_GWF-(1,39)
 Package                           42            -6.16105976E-02                     1_GWF-SFR-(206)-inflow
 Model                             43          1  2.93240987E-08       *                     1_GWF-(1,1276)
 Package                           43            -8.61918208E-03       *              1_GWF-SFR-(46)-inflow
 ----------------------------------------------------------------------------------------------------------


 43 CALLS TO NUMERICAL SOLUTION IN TIME STEP 4 STRESS PERIOD 2
 71 TOTAL ITERATIONS

 OUTER ITERATION SUMMARY
 ----------------------------------------------------------------------------------------------------------
                                OUTER      INNER                    STEP   MAXIMUM CHANGE MODEL-(CELLID) OR
 OUTER ITERATION STEP       ITERATION  ITERATION  MAXIMUM CHANGE SUCCESS             MODEL-PACKAGE-(NUMBER)
 ----------------------------------------------------------------------------------------------------------
 Model                              1         16      0.30367827                              1_GWF-(1,344)
 Model                              2          9  1.15064582E-02                             1_GWF-(1,2556)
 Model                              3          5  4.27983327E-03       *                      1_GWF-(1,163)
 Package                            3                 -132268.62                     1_GWF-SFR-(206)-inflow
 Model                              4          2  1.76346580E-03       *                      1_GWF-(1,456)
 Package                            4                 -63759.594                     1_GWF-SFR-(206)-inflow
 Model                              5          2  1.09683790E-03       *                     1_GWF-(1,1207)
 Package                            5                 -21606.613                     1_GWF-SFR-(206)-inflow
 Model                              6          1  2.70483996E-04       *                      1_GWF-(1,130)
 Package                            6                 -9178.9537                     1_GWF-SFR-(206)-inflow
 Model                              7          1  5.62321156E-04       *                      1_GWF-(1,875)
 Package                            7                 -2164.6507                     1_GWF-SFR-(206)-inflow
 Model                              8          1  2.88465833E-04       *                      1_GWF-(1,935)
 Package                            8                 -2806.9675                     1_GWF-SFR-(206)-inflow
 Model                              9          2  2.09225077E-03       *                     1_GWF-(1,1181)
 Package                            9                 -575.26805                     1_GWF-SFR-(206)-inflow
 Model                             10          1 -8.41068901E-05       *                      1_GWF-(1,142)
 Package                           10                 -3551.2803                     1_GWF-SFR-(206)-inflow
 Model                             11          1 -1.10843008E-04       *                      1_GWF-(1,110)
 Package                           11                 -538.91227                     1_GWF-SFR-(206)-inflow
 Model                             12          1  1.58990230E-04       *                     1_GWF-(1,1552)
 Package                           12                 -240.58589                     1_GWF-SFR-(206)-inflow
 Model                             13          1  9.28610669E-05       *                     1_GWF-(1,1015)
 Package                           13                  103.13351                     1_GWF-SFR-(206)-inflow
 Model                             14          1  6.16763979E-05       *                     1_GWF-(1,1271)
 Package                           14                 -42.995536                      1_GWF-SFR-(46)-inflow
 Model                             15          1  4.24506950E-05       *                     1_GWF-(1,1017)
 Package                           15                  47.092137                     1_GWF-SFR-(206)-inflow
 Model                             16          1  4.76048207E-05       *                     1_GWF-(1,1270)
 Package                           16                 -70.936263                     1_GWF-SFR-(206)-inflow
 Model                             17          1  3.06478230E-05       *                     1_GWF-(1,1018)
 Package                           17                 -12.667283                      1_GWF-SFR-(46)-inflow
 Model                             18          1  3.38988800E-05       *                     1_GWF-(1,1270)
 Package                           18                 -51.434679                     1_GWF-SFR-(206)-inflow
 Model                             19          1  2.34090869E-05       *                     1_GWF-(1,1018)
 Package                           19                 -9.5111712                      1_GWF-SFR-(46)-inflow
 Model                             20          1  2.57290411E-05       *                     1_GWF-(1,1270)
 Package                           20                 -36.507581                     1_GWF-SFR-(206)-inflow
 Model                             21          1  1.74901774E-05       *                      1_GWF-(1,932)
 Package                           21                 -7.1723976                      1_GWF-SFR-(46)-inflow
 Model                             22          1  2.09983329E-05       *                     1_GWF-(1,1368)
 Package                           22                 -26.532765                     1_GWF-SFR-(206)-inflow
 Model                             23          1  1.27215804E-05       *                     1_GWF-(1,1553)
 Package                           23                 -8.4967675                     1_GWF-SFR-(206)-inflow
 Model                             24          1  1.83889636E-05       *                     1_GWF-(1,1368)
 Package                           24                 -18.984915                     1_GWF-SFR-(206)-inflow
 Model                             25          1  8.98113211E-06       *                     1_GWF-(1,1554)
 Package                           25                 -9.6362731                     1_GWF-SFR-(206)-inflow
 Model                             26          1  1.78367166E-05       *                     1_GWF-(1,1368)
 Package                           26                 -13.175429                     1_GWF-SFR-(206)-inflow
 Model                             27          1  5.84545774E-06       *                     1_GWF-(1,1554)
 Package                           27                 -11.544295                     1_GWF-SFR-(206)-inflow
 Model                             28          1  2.07268480E-05       *                     1_GWF-(1,1270)
 Package                           28                 -8.7332222                     1_GWF-SFR-(206)-inflow
 Model                             29          1  3.29088070E-06       *                     1_GWF-(1,1554)
 Package                           29                 -16.458712                     1_GWF-SFR-(206)-inflow
 Model                             30          1  2.59900147E-05       *                     1_GWF-(1,1270)
 Package                           30                 -5.2156136                     1_GWF-SFR-(206)-inflow
 Model                             31          1  1.05436030E-06       *                     1_GWF-(1,1553)
 Package                           31                 -26.568553                     1_GWF-SFR-(206)-inflow
 Model                             32          1  7.01214989E-06       *                     1_GWF-(1,1453)
 Package                           32                -0.96753521                     1_GWF-SFR-(217)-inflow
 Model                             33          1  8.25701676E-07       *                     1_GWF-(1,1920)
 Package                           33                 -6.1390727                     1_GWF-SFR-(206)-inflow
 Model                             34          1  3.34118408E-06       *                     1_GWF-(1,1097)
 Package                           34                -0.96098576                     1_GWF-SFR-(206)-inflow
 Model                             35          1  3.43038550E-07       *                      1_GWF-(1,213)
 Package                           35                 -3.0862624                     1_GWF-SFR-(206)-inflow
 Model                             36          1  8.79888347E-07       *                     1_GWF-(1,1364)
 Package                           36                -0.15517785                      1_GWF-SFR-(46)-inflow
 Model                             37          1  2.24075080E-07       *                       1_GWF-(1,20)
 Package                           37                -0.91692748                     1_GWF-SFR-(206)-inflow
 Model                             38          1  8.88711952E-07       *                     1_GWF-(1,1267)
 Package                           38                -0.15278072                     1_GWF-SFR-(206)-inflow
 Model                             39          1  1.31352010E-07       *                      1_GWF-(1,452)
 Package                           39                -0.31214071                     1_GWF-SFR-(206)-inflow
 Model                             40          1  9.39033669E-08       *                     1_GWF-(1,1453)
 Package                           40                -0.34596045                     1_GWF-SFR-(206)-inflow
 Model                             41          1  9.95757148E-08       *                     1_GWF-(1,1766)
 Package                           41                -0.20656816                     1_GWF-SFR-(206)-inflow
 Model                             42          1  1.04558893E-07       *                     1_GWF-(1,1364)
 Package                           42            -7.79565362E-02                     1_GWF-SFR-(206)-inflow
 Model                             43          1  4.79632831E-08       *                     1_GWF-(1,1920)
 Package                           43                -0.10520345                     1_GWF-SFR-(206)-inflow
 Model                             44          1  7.63361072E-08       *                     1_GWF-(1,1453)
 Package                           44            -2.20704295E-02                     1_GWF-SFR-(206)-inflow
 Model                             45          1  2.90972650E-08       *                     1_GWF-(1,1920)
 Package                           45            -5.54867442E-02                     1_GWF-SFR-(206)-inflow
 Model                             46          1  6.13970599E-08       *                     1_GWF-(1,1453)
 Package                           46            -2.68681231E-02                     1_GWF-SFR-(206)-inflow
 Model                             47          1  2.02230694E-08       *                     1_GWF-(1,1274)
 Package                           47            -4.46963584E-02                     1_GWF-SFR-(206)-inflow
 Model                             48          1  5.23730250E-08       *                     1_GWF-(1,1453)
 Package                           48            -1.88326500E-02                     1_GWF-SFR-(206)-inflow
 Model                             49          1  1.26890143E-08       *                     1_GWF-(1,1274)
 Package                           49            -3.96494890E-02                     1_GWF-SFR-(206)-inflow
 Model                             50          1  5.44912950E-08       *                     1_GWF-(1,1453)
 Package                           50            -1.20261656E-02                     1_GWF-SFR-(206)-inflow
 Model                             51          1  6.47406750E-09       *                     1_GWF-(1,1847)
 Package                           51            -4.36295317E-02                     1_GWF-SFR-(206)-inflow
 Model                             52          1  6.65849598E-08       *                     1_GWF-(1,1268)
 Package                           52            -7.16965003E-03       *             1_GWF-SFR-(206)-inflow
 ----------------------------------------------------------------------------------------------------------


 52 CALLS TO NUMERICAL SOLUTION IN TIME STEP 5 STRESS PERIOD 2
 82 TOTAL ITERATIONS

 OUTER ITERATION SUMMARY
 ----------------------------------------------------------------------------------------------------------
                                OUTER      INNER                    STEP   MAXIMUM CHANGE MODEL-(CELLID) OR
 OUTER ITERATION STEP       ITERATION  ITERATION  MAXIMUM CHANGE SUCCESS             MODEL-PACKAGE-(NUMBER)
 ----------------------------------------------------------------------------------------------------------
 Model                              1         14     -0.12628179                              1_GWF-(1,344)
 Model                              2          4 -4.13173290E-03       *                     1_GWF-(1,2556)
 Package                            2                  113318.66                      1_GWF-SFR-(46)-inflow
 Model                              3          2 -1.45088630E-03       *                     1_GWF-(1,1715)
 Package                            3                  46522.300                     1_GWF-SFR-(206)-inflow
 Model                              4          2 -8.92501659E-04       *                     1_GWF-(1,2099)
 Package                            4                  20765.944                     1_GWF-SFR-(206)-inflow
 Model                              5          1 -2.69621774E-04       *                      1_GWF-(1,166)
 Package                            5                  10181.114                     1_GWF-SFR-(206)-inflow
 Model                              6          1 -3.33758142E-04       *                      1_GWF-(1,609)
 Package                            6                  2801.2522                     1_GWF-SFR-(206)-inflow
 Model                              7          1 -2.78707032E-04       *                      1_GWF-(1,853)
 Package                            7                  2619.6097                     1_GWF-SFR-(206)-inflow
 Model                              8          1 -4.88126296E-04       *                     1_GWF-(1,1020)
 Package                            8                  1225.2023                     1_GWF-SFR-(206)-inflow
 Model                              9          1 -1.81005176E-04       *                     1_GWF-(1,1274)
 Package                            9                  1783.3716                     1_GWF-SFR-(206)-inflow
 Model                             10          1 -6.31292369E-04       *                     1_GWF-(1,1181)
 Package                           10                  440.29066                     1_GWF-SFR-(206)-inflow
 Model                             11          1 -7.30796551E-05       *                     1_GWF-(1,1457)
 Package                           11                  1339.2213                     1_GWF-SFR-(206)-inflow
 Model                             12          1 -5.06337014E-04       *                     1_GWF-(1,1454)
 Package                           12                  110.00052                     1_GWF-SFR-(206)-inflow
 Model                             13          1 -3.34592978E-05       *                     1_GWF-(1,1368)
 Package                           13                  589.29273                     1_GWF-SFR-(206)-inflow
 Model                             14          1 -2.30012480E-04       *                     1_GWF-(1,1271)
 Package                           14                  76.525483                     1_GWF-SFR-(206)-inflow
 Model                             15          1 -1.77738906E-05       *                     1_GWF-(1,1274)
 Package                           15                  285.03472                     1_GWF-SFR-(206)-inflow
 Model                             16          1 -1.04970667E-04       *                     1_GWF-(1,1363)
 Package                           16                  37.021695                     1_GWF-SFR-(206)-inflow
 Model                             17          1 -1.16918003E-05       *                     1_GWF-(1,1274)
 Package                           17                  121.66136                     1_GWF-SFR-(206)-inflow
 Model                             18          1 -5.06829039E-05       *                     1_GWF-(1,1099)
 Package                           18                  15.286177                     1_GWF-SFR-(206)-inflow
 Model                             19          1 -6.58116738E-06       *                     1_GWF-(1,1764)
 Package                           19                  31.937306                     1_GWF-SFR-(206)-inflow
 Model                             20          1 -2.53569577E-05       *                     1_GWF-(1,1265)
 Package                           20                  13.644125                     1_GWF-SFR-(206)-inflow
 Model                             21          1 -5.03035261E-06       *                     1_GWF-(1,1274)
 Package                           21                  41.706469                     1_GWF-SFR-(206)-inflow
 Model                             22          1 -1.83965243E-05       *                     1_GWF-(1,1271)
 Package                           22                  4.6076730                     1_GWF-SFR-(206)-inflow
 Model                             23          1 -2.81424451E-06       *                     1_GWF-(1,1764)
 Package                           23                  6.8475751                     1_GWF-SFR-(217)-inflow
 Model                             24          1 -1.06028660E-05       *                     1_GWF-(1,1173)
 Package                           24                  5.3816537                     1_GWF-SFR-(206)-inflow
 Model                             25          1 -2.06883868E-06       *                     1_GWF-(1,1274)
 Package                           25                  17.122019                     1_GWF-SFR-(206)-inflow
 Model                             26          1 -9.13204391E-06       *                     1_GWF-(1,1271)
 Package                           26                  2.0381081                     1_GWF-SFR-(206)-inflow
 Model                             27          1 -1.19570259E-06       *                      1_GWF-(1,938)
 Package                           27                  3.4760632                     1_GWF-SFR-(217)-inflow
 Model                             28          1 -4.71402120E-06       *                     1_GWF-(1,1088)
 Package                           28                  2.1104462                     1_GWF-SFR-(206)-inflow
 Model                             29          1 -9.17334120E-07       *                     1_GWF-(1,1367)
 Package                           29                  7.8573094                     1_GWF-SFR-(206)-inflow
 Model                             30          1 -2.98405624E-06       *                     1_GWF-(1,1271)
 Package                           30                 0.79868640                     1_GWF-SFR-(206)-inflow
 Model                             31          1 -7.18621067E-07       *                     1_GWF-(1,1023)
 Package                           31                 0.62973140                     1_GWF-SFR-(257)-inflow
 Model                             32          1 -1.21319016E-06       *                     1_GWF-(1,1172)
 Package                           32                 0.79041075                     1_GWF-SFR-(206)-inflow
 Model                             33          1 -4.35441791E-07       *                     1_GWF-(1,1367)
 Package                           33                  1.9437984                     1_GWF-SFR-(206)-inflow
 Model                             34          1 -1.11206907E-06       *                     1_GWF-(1,1364)
 Package                           34                 0.42749217                     1_GWF-SFR-(206)-inflow
 Model                             35          1 -2.49995253E-07       *                     1_GWF-(1,1367)
 Package                           35                 0.81565727                     1_GWF-SFR-(206)-inflow
 Model                             36          1 -9.62347315E-07       *                     1_GWF-(1,1363)
 Package                           36                 0.29621139                     1_GWF-SFR-(206)-inflow
 Model                             37          1 -1.55046479E-07       *                     1_GWF-(1,1367)
 Package                           37                 0.96184391                     1_GWF-SFR-(206)-inflow
 Model                             38          1 -1.05447549E-06       *                     1_GWF-(1,1364)
 Package                           38                 0.18818272                     1_GWF-SFR-(206)-inflow
 Model                             39          1 -7.03249441E-08       *                     1_GWF-(1,1023)
 Package                           39                 0.87072433                     1_GWF-SFR-(206)-inflow
 Model                             40          1 -5.28848346E-07       *                     1_GWF-(1,1089)
 Package                           40                 0.12067860                     1_GWF-SFR-(206)-inflow
 Model                             41          1 -9.67190203E-08       *                      1_GWF-(1,431)
 Package                           41                 0.57784564                     1_GWF-SFR-(206)-inflow
 Model                             42          1 -8.21152355E-08       *                     1_GWF-(1,1936)
 Package                           42             6.22467791E-02                     1_GWF-SFR-(217)-inflow
 Model                             43          1 -4.67655923E-08       *                     1_GWF-(1,1008)
 Package                           43            -2.51965998E-02                     1_GWF-SFR-(206)-inflow
 Model                             44          1 -3.44261082E-08       *                     1_GWF-(1,1270)
 Package                           44             4.69458693E-02                     1_GWF-SFR-(206)-inflow
 Model                             45          1 -3.40943700E-08       *                     1_GWF-(1,1555)
 Package                           45             3.17458426E-02                     1_GWF-SFR-(206)-inflow
 Model                             46          1 -2.53128007E-08       *                     1_GWF-(1,1370)
 Package                           46             3.34871735E-02                     1_GWF-SFR-(206)-inflow
 Model                             47          1 -2.94179756E-08       *                     1_GWF-(1,1555)
 Package                           47             1.89286537E-02                     1_GWF-SFR-(206)-inflow
 Model                             48          1 -1.76799233E-08       *                     1_GWF-(1,1369)
 Package                           48             2.81766397E-02                     1_GWF-SFR-(206)-inflow
 Model                             49          1 -2.74085323E-08       *                     1_GWF-(1,1555)
 Package                           49             1.30028359E-02                     1_GWF-SFR-(206)-inflow
 Model                             50          1 -1.15662999E-08       *                     1_GWF-(1,1369)
 Package                           50             2.54185576E-02                     1_GWF-SFR-(206)-inflow
 Model                             51          1 -2.89405477E-08       *                     1_GWF-(1,1555)
 Package                           51             8.50230445E-03       *             1_GWF-SFR-(206)-inflow
 ----------------------------------------------------------------------------------------------------------


 51 CALLS TO NUMERICAL SOLUTION IN TIME STEP 6 STRESS PERIOD 2
 69 TOTAL ITERATIONS

 OUTER ITERATION SUMMARY
 ----------------------------------------------------------------------------------------------------------
                                OUTER      INNER                    STEP   MAXIMUM CHANGE MODEL-(CELLID) OR
 OUTER ITERATION STEP       ITERATION  ITERATION  MAXIMUM CHANGE SUCCESS             MODEL-PACKAGE-(NUMBER)
 ----------------------------------------------------------------------------------------------------------
 Model                              1         15     -0.20630531                              1_GWF-(1,344)
 Model                              2          7 -7.59394734E-03       *                     1_GWF-(1,2556)
 Package                            2                  185384.76                      1_GWF-SFR-(46)-inflow
 Model                              3          3 -2.66659567E-03       *                     1_GWF-(1,1715)
 Package                            3                  81974.142                     1_GWF-SFR-(206)-inflow
 Model                              4          2 -1.20400352E-03       *                      1_GWF-(1,204)
 Package                            4                  38155.080                     1_GWF-SFR-(206)-inflow
 Model                              5          1 -4.15814822E-04       *                      1_GWF-(1,130)
 Package                            5                  15280.932                     1_GWF-SFR-(206)-inflow
 Model                              6          1 -4.62177426E-04       *                     1_GWF-(1,1207)
 Package                            6                  4153.8828                     1_GWF-SFR-(206)-inflow
 Model                              7          1 -4.02637023E-04       *                     1_GWF-(1,1123)
 Package                            7                  3600.3046                     1_GWF-SFR-(206)-inflow
 Model                              8          1 -5.77459815E-04       *                     1_GWF-(1,1020)
 Package                            8                  1878.3102                     1_GWF-SFR-(206)-inflow
 Model                              9          1 -2.93293377E-04       *                     1_GWF-(1,1276)
 Package                            9                  2188.8002                     1_GWF-SFR-(206)-inflow
 Model                             10          1 -7.30602564E-04       *                     1_GWF-(1,1098)
 Package                           10                  774.64279                     1_GWF-SFR-(206)-inflow
 Model                             11          1 -1.36362935E-04       *                     1_GWF-(1,1457)
 Package                           11                  1639.5593                     1_GWF-SFR-(206)-inflow
 Model                             12          1 -5.69985432E-04       *                     1_GWF-(1,1454)
 Package                           12                  203.40724                     1_GWF-SFR-(206)-inflow
 Model                             13          1 -6.48551748E-05       *                     1_GWF-(1,1368)
 Package                           13                  794.52237                     1_GWF-SFR-(206)-inflow
 Model                             14          1 -4.16972446E-04       *                     1_GWF-(1,1365)
 Package                           14                  87.950655                     1_GWF-SFR-(206)-inflow
 Model                             15          1 -3.12635814E-05       *                     1_GWF-(1,1368)
 Package                           15                  484.36731                     1_GWF-SFR-(206)-inflow
 Model                             16          1 -2.01962043E-04       *                     1_GWF-(1,1364)
 Package                           16                  80.061384                     1_GWF-SFR-(206)-inflow
 Model                             17          1 -1.76764779E-05       *                     1_GWF-(1,1274)
 Package                           17                  245.10616                     1_GWF-SFR-(206)-inflow
 Model                             18          1 -9.53356710E-05       *                     1_GWF-(1,1364)
 Package                           18                  17.284952                     1_GWF-SFR-(206)-inflow
 Model                             19          1 -9.63526597E-06       *                     1_GWF-(1,1274)
 Package                           19                  83.895443                     1_GWF-SFR-(206)-inflow
 Model                             20          1 -5.62786857E-05       *                     1_GWF-(1,1271)
 Package                           20                  26.022753                     1_GWF-SFR-(206)-inflow
 Model                             21          1 -5.08144362E-06       *                     1_GWF-(1,1764)
 Package                           21                  76.309016                     1_GWF-SFR-(206)-inflow
 Model                             22          1 -2.62696252E-05       *                     1_GWF-(1,1553)
 Package                           22                  2.1184791                      1_GWF-SFR-(46)-inflow
 Model                             23          1 -3.92396501E-06       *                     1_GWF-(1,1367)
 Package                           23                  6.8433270                      1_GWF-SFR-(46)-inflow
 Model                             24          1 -7.83420072E-06       *                     1_GWF-(1,1271)
 Package                           24                  15.093243                     1_GWF-SFR-(206)-inflow
[...]
 Package                            3                  2925.9503                     1_GWF-SFR-(206)-inflow
 Model                              4          1 -1.18107647E-04       *                       1_GWF-(1,70)
 Package                            4                  1408.9785                     1_GWF-SFR-(206)-inflow
 Model                              5          1 -1.10290672E-04       *                     1_GWF-(1,1210)
 Package                            5                  863.39350                     1_GWF-SFR-(206)-inflow
 Model                              6          1 -1.32447004E-04       *                      1_GWF-(1,819)
 Package                            6                  521.01716                     1_GWF-SFR-(206)-inflow
 Model                              7          1 -1.36803234E-04       *                      1_GWF-(1,984)
 Package                            7                  349.27166                     1_GWF-SFR-(206)-inflow
 Model                              8          1 -1.45168374E-04       *                     1_GWF-(1,1149)
 Package                            8                  231.45734                     1_GWF-SFR-(206)-inflow
 Model                              9          1 -8.73160295E-05       *                     1_GWF-(1,1063)
 Package                            9                  211.89183                     1_GWF-SFR-(206)-inflow
 Model                             10          1 -8.31489973E-05       *                     1_GWF-(1,1147)
 Package                           10                  124.38195                     1_GWF-SFR-(206)-inflow
 Model                             11          1 -2.77548008E-05       *                     1_GWF-(1,1143)
 Package                           11                  119.92582                     1_GWF-SFR-(206)-inflow
 Model                             12          1 -3.63521828E-05       *                     1_GWF-(1,1066)
 Package                           12                  31.871779                     1_GWF-SFR-(206)-inflow
 Model                             13          1 -1.73046493E-05       *                     1_GWF-(1,1232)
 Package                           13                  59.525034                     1_GWF-SFR-(206)-inflow
 Model                             14          1 -3.27116224E-05       *                     1_GWF-(1,1066)
 Package                           14                  15.950719                     1_GWF-SFR-(206)-inflow
 Model                             15          1 -1.02749667E-05       *                     1_GWF-(1,1232)
 Package                           15                  52.379085                     1_GWF-SFR-(206)-inflow
 Model                             16          1 -3.54490081E-05       *                     1_GWF-(1,1147)
 Package                           16                  10.042232                     1_GWF-SFR-(206)-inflow
 Model                             17          1 -5.23589966E-06       *                     1_GWF-(1,1232)
 Package                           17                  50.565245                     1_GWF-SFR-(206)-inflow
 Model                             18          1 -4.24104398E-05       *                     1_GWF-(1,1147)
 Package                           18                  8.5369587                     1_GWF-SFR-(206)-inflow
 Model                             19          1 -2.65020083E-06       *                     1_GWF-(1,1920)
 Package                           19                  53.912603                     1_GWF-SFR-(206)-inflow
 Model                             20          1 -1.52452223E-05       *                     1_GWF-(1,1420)
 Package                           20                  9.5702794                     1_GWF-SFR-(206)-inflow
 Model                             21          1 -1.30405371E-06       *                     1_GWF-(1,1555)
 Package                           21                  23.044818                     1_GWF-SFR-(206)-inflow
 Model                             22          1 -1.08926175E-05       *                     1_GWF-(1,1270)
 Package                           22                  1.8174440                     1_GWF-SFR-(206)-inflow
 Model                             23          1 -5.13552379E-07       *                      1_GWF-(1,877)
 Package                           23                  18.219750                     1_GWF-SFR-(206)-inflow
 Model                             24          1 -2.19605047E-06       *                     1_GWF-(1,1183)
 Package                           24                 0.45044619                      1_GWF-SFR-(46)-inflow
 Model                             25          1  6.71499151E-07       *                       1_GWF-(1,20)
 Package                           25                  1.5436835                      1_GWF-SFR-(46)-inflow
 Model                             26          1 -6.67450479E-07       *                     1_GWF-(1,1362)
 Package                           26                  1.2467429                     1_GWF-SFR-(206)-inflow
 Model                             27          1 -2.32852187E-07       *                     1_GWF-(1,1270)
 Package                           27                  1.6931185                     1_GWF-SFR-(206)-inflow
 Model                             28          1 -8.93045979E-07       *                     1_GWF-(1,1455)
 Package                           28                 0.15482607                      1_GWF-SFR-(46)-inflow
 Model                             29          1 -1.25655475E-07       *                     1_GWF-(1,1270)
 Package                           29                  1.0413680                     1_GWF-SFR-(206)-inflow
 Model                             30          1 -8.47259940E-07       *                     1_GWF-(1,1454)
 Package                           30                 0.23547681                     1_GWF-SFR-(206)-inflow
 Model                             31          1 -6.78956837E-08       *                     1_GWF-(1,1277)
 Package                           31                  1.1990075                     1_GWF-SFR-(206)-inflow
 Model                             32          1 -3.82643805E-07       *                     1_GWF-(1,1277)
 Package                           32                 0.12581178                     1_GWF-SFR-(206)-inflow
 Model                             33          1  1.21651510E-07       *                       1_GWF-(1,47)
 Package                           33                 0.19730469                      1_GWF-SFR-(46)-inflow
 Model                             34          1 -4.77103583E-08       *                     1_GWF-(1,1766)
 Package                           34                 0.21824286                     1_GWF-SFR-(206)-inflow
 Model                             35          1 -5.78466484E-08       *                     1_GWF-(1,1655)
 Package                           35                 0.13965811                     1_GWF-SFR-(206)-inflow
 Model                             36          1 -4.34645528E-08       *                     1_GWF-(1,1279)
 Package                           36             5.85080687E-02                     1_GWF-SFR-(206)-inflow
 Model                             37          1 -2.91214519E-08       *                     1_GWF-(1,1656)
 Package                           37             7.30398938E-02                     1_GWF-SFR-(206)-inflow
 Model                             38          1 -3.83183760E-08       *                     1_GWF-(1,1372)
 Package                           38             1.51440692E-02                     1_GWF-SFR-(206)-inflow
 Model                             39          1 -1.80808115E-08       *                     1_GWF-(1,1656)
 Package                           39             5.90537181E-02                     1_GWF-SFR-(206)-inflow
 Model                             40          1 -4.00312672E-08       *                     1_GWF-(1,1270)
 Package                           40             1.15037506E-02                     1_GWF-SFR-(206)-inflow
 Model                             41          1 -1.00644399E-08       *                     1_GWF-(1,1558)
 Package                           41             5.35647244E-02                     1_GWF-SFR-(206)-inflow
 Model                             42          1 -5.38371125E-08       *                     1_GWF-(1,1270)
 Package                           42             8.66184236E-03       *             1_GWF-SFR-(206)-inflow
 ----------------------------------------------------------------------------------------------------------


 42 CALLS TO NUMERICAL SOLUTION IN TIME STEP 47 STRESS PERIOD 2
 49 TOTAL ITERATIONS

 OUTER ITERATION SUMMARY
 ----------------------------------------------------------------------------------------------------------
                                OUTER      INNER                    STEP   MAXIMUM CHANGE MODEL-(CELLID) OR
 OUTER ITERATION STEP       ITERATION  ITERATION  MAXIMUM CHANGE SUCCESS             MODEL-PACKAGE-(NUMBER)
 ----------------------------------------------------------------------------------------------------------
 Model                              1         11  2.48483240E-02                              1_GWF-(1,577)
 Model                              2          2  1.03564071E-03       *                     1_GWF-(1,2556)
 Package                            2                 -32530.462                     1_GWF-SFR-(206)-inflow
 Model                              3          1  3.30943246E-04       *                      1_GWF-(1,130)
 Package                            3                 -13037.546                     1_GWF-SFR-(206)-inflow
 Model                              4          1  2.45373569E-04       *                      1_GWF-(1,132)
 Package                            4                 -4295.9880                     1_GWF-SFR-(206)-inflow
 Model                              5          1  2.14490329E-04       *                      1_GWF-(1,103)
 Package                            5                 -2791.0107                     1_GWF-SFR-(206)-inflow
 Model                              6          1  2.11959358E-04       *                     1_GWF-(1,2330)
 Package                            6                 -1866.4965                     1_GWF-SFR-(206)-inflow
 Model                              7          1  1.96512977E-04       *                     1_GWF-(1,2331)
 Package                            7                 -1282.0266                     1_GWF-SFR-(206)-inflow
 Model                              8          1  1.68073371E-04       *                      1_GWF-(1,935)
 Package                            8                 -918.37999                     1_GWF-SFR-(206)-inflow
 Model                              9          1  1.62910073E-04       *                     1_GWF-(1,1018)
 Package                            9                 -666.23429                     1_GWF-SFR-(206)-inflow
 Model                             10          1  1.56183373E-04       *                     1_GWF-(1,1097)
 Package                           10                 -498.22513                     1_GWF-SFR-(206)-inflow
 Model                             11          1  1.54008591E-04       *                     1_GWF-(1,1179)
 Package                           11                 -369.03311                     1_GWF-SFR-(206)-inflow
 Model                             12          1  1.39722451E-04       *                     1_GWF-(1,1270)
 Package                           12                 -281.22992                     1_GWF-SFR-(206)-inflow
 Model                             13          1  1.19880869E-04       *                     1_GWF-(1,1270)
 Package                           13                 -206.12014                     1_GWF-SFR-(206)-inflow
 Model                             14          1  8.69506027E-05       *                     1_GWF-(1,1271)
 Package                           14                 -152.56999                     1_GWF-SFR-(206)-inflow
 Model                             15          1  3.37071407E-05       *                     1_GWF-(1,1097)
 Package                           15                 -105.53906                     1_GWF-SFR-(206)-inflow
 Model                             16          1  2.96083072E-05       *                     1_GWF-(1,1364)
 Package                           16                 -29.111353                     1_GWF-SFR-(206)-inflow
 Model                             17          1  2.30516353E-05       *                     1_GWF-(1,1097)
 Package                           17                 -36.967038                     1_GWF-SFR-(206)-inflow
 Model                             18          1  2.62174090E-05       *                     1_GWF-(1,1364)
 Package                           18                 -17.601474                     1_GWF-SFR-(206)-inflow
 Model                             19          1  1.51017613E-05       *                     1_GWF-(1,1097)
 Package                           19                 -31.336678                     1_GWF-SFR-(206)-inflow
 Model                             20          1  2.71615343E-05       *                     1_GWF-(1,1364)
 Package                           20                 -10.838550                     1_GWF-SFR-(206)-inflow
 Model                             21          1  8.96315859E-06       *                     1_GWF-(1,1097)
 Package                           21                 -30.439923                     1_GWF-SFR-(206)-inflow
 Model                             22          1  3.65767956E-05       *                     1_GWF-(1,1271)
 Package                           22                 -6.4674184                     1_GWF-SFR-(206)-inflow
 Model                             23          1  4.15532455E-06       *                     1_GWF-(1,1097)
 Package                           23                 -39.168252                     1_GWF-SFR-(206)-inflow
 Model                             24          1  5.18934841E-05       *                     1_GWF-(1,1270)
 Package                           24                 -3.4163349                     1_GWF-SFR-(206)-inflow
 Model                             25          1  1.11457359E-06       *                       1_GWF-(1,13)
 Package                           25                 -59.198483                     1_GWF-SFR-(206)-inflow
 Model                             26          1  1.77130570E-06       *                     1_GWF-(1,1555)
 Package                           26                -0.63305595                      1_GWF-SFR-(46)-inflow
 Model                             27          1  1.17070635E-06       *                     1_GWF-(1,1277)
 Package                           27                  2.1579411                     1_GWF-SFR-(206)-inflow
 Model                             28          1  1.14250491E-06       *                     1_GWF-(1,1555)
 Package                           28                 -2.3083356                     1_GWF-SFR-(206)-inflow
 Model                             29          1  1.04436131E-06       *                     1_GWF-(1,1097)
 Package                           29                -0.26963078                     1_GWF-SFR-(217)-inflow
 Model                             30          1  8.10113676E-07       *                     1_GWF-(1,1555)
 Package                           30                 -1.1659258                     1_GWF-SFR-(206)-inflow
 Model                             31          1  8.60076341E-07       *                     1_GWF-(1,1097)
 Package                           31                -0.31883569                     1_GWF-SFR-(206)-inflow
 Model                             32          1  6.03389367E-07       *                     1_GWF-(1,1555)
 Package                           32                -0.81431247                     1_GWF-SFR-(206)-inflow
 Model                             33          1  6.84306713E-07       *                     1_GWF-(1,1097)
 Package                           33                -0.30754746                     1_GWF-SFR-(206)-inflow
 Model                             34          1  4.52206706E-07       *                     1_GWF-(1,1555)
 Package                           34                -0.59024954                     1_GWF-SFR-(206)-inflow
 Model                             35          1  5.46301834E-07       *                     1_GWF-(1,1180)
 Package                           35                -0.26750401                     1_GWF-SFR-(206)-inflow
 Model                             36          1  3.34173450E-07       *                     1_GWF-(1,1555)
 Package                           36                -0.44029857                     1_GWF-SFR-(206)-inflow
 Model                             37          1  4.51752243E-07       *                     1_GWF-(1,1180)
 Package                           37                -0.22120626                     1_GWF-SFR-(217)-inflow
 Model                             38          1  2.37879192E-07       *                     1_GWF-(1,1555)
 Package                           38                -0.34536120                     1_GWF-SFR-(206)-inflow
 Model                             39          1  4.02914281E-07       *                     1_GWF-(1,1180)
 Package                           39                -0.17478436                     1_GWF-SFR-(217)-inflow
 Model                             40          1  1.57280851E-07       *                     1_GWF-(1,1555)
 Package                           40                -0.29865575                     1_GWF-SFR-(206)-inflow
 Model                             41          1  4.25440447E-07       *                     1_GWF-(1,1180)
 Package                           41                -0.13038469                     1_GWF-SFR-(217)-inflow
 Model                             42          1  8.95904577E-08       *                     1_GWF-(1,1555)
 Package                           42                -0.31678205                     1_GWF-SFR-(206)-inflow
 Model                             43          1  6.14870885E-07       *                     1_GWF-(1,1270)
 Package                           43            -9.24457401E-02                     1_GWF-SFR-(217)-inflow
 Model                             44          1  2.97281986E-08       *                     1_GWF-(1,1555)
 Package                           44                -0.48364708                     1_GWF-SFR-(206)-inflow
 Model                             45          1  1.24419984E-07       *                     1_GWF-(1,1555)
 Package                           45            -6.18577769E-02                     1_GWF-SFR-(217)-inflow
 Model                             46          1  1.77374204E-08       *                     1_GWF-(1,1180)
 Package                           46                -0.12100776                     1_GWF-SFR-(206)-inflow
 Model                             47          1  1.50066796E-07       *                     1_GWF-(1,1454)
 Package                           47            -3.37146995E-03       *             1_GWF-SFR-(206)-inflow
 ----------------------------------------------------------------------------------------------------------


 47 CALLS TO NUMERICAL SOLUTION IN TIME STEP 48 STRESS PERIOD 2
 58 TOTAL ITERATIONS

 MEMORY MANAGER TOTAL STORAGE BY DATA TYPE, IN MEGABYTES
 -------------------------------
                    ALLOCATED   
 DATA TYPE           MEMORY     
 -------------------------------
 Character        0.13644900    
 Logical          4.40000000E-05
 Integer          0.65242800    
 Real             1.6501440     
 -------------------------------
 Total            2.4390650     
 -------------------------------


 
 Run end date and time (yyyy/mm/dd hh:mm:ss): 2022/01/14 23:26:13
 Elapsed run time:  9.532 Seconds
 Normal termination of simulation.
