                                   MODFLOW 6
                U.S. GEOLOGICAL SURVEY MODULAR HYDROLOGIC MODEL
                            VERSION 6.2.1 02/18/2021

   MODFLOW 6 compiled Feb 18 2021 21:14:51 with IFORT compiler (ver. 19.10.3)

This software has been approved for release by the U.S. Geological 
Survey (USGS). Although the software has been subjected to rigorous 
review, the USGS reserves the right to update the software as needed 
pursuant to further analysis and review. No warranty, expressed or 
implied, is made by the USGS or the U.S. Government as to the 
functionality of the software and related material nor shall the 
fact of release constitute any such warranty. Furthermore, the 
software is released on condition that neither the USGS nor the U.S. 
Government shall be held liable for any damages resulting from its 
authorized or unauthorized use. Also refer to the USGS Water 
Resources Software User Rights Notice for complete use, copyright, 
and distribution information.


System command used to initiate simulation:
..\bins\win\mf6

MODFLOW was compiled using uniform precision.

Real Variables
  KIND: 8
  TINY (smallest non-zero value):    2.225074-308
  HUGE (largest value):    1.797693+308
  PRECISION: 15
  BIT SIZE: 64

Integer Variables
  KIND: 4
  HUGE (largest value): 2147483647
  BIT SIZE: 32

Long Integer Variables
  KIND: 8
  HUGE (largest value): 9223372036854775807
  BIT SIZE: 64

Logical Variables
  KIND: 4
  BIT SIZE: 32
 

 OPENED mfsim.nam
 FILE TYPE:NAM   UNIT 1001   STATUS:OLD                 
 FORMAT:FORMATTED              ACCESS:SEQUENTIAL          
 ACTION:READ                

 # File generated by Flopy version 3.3.5 on 12/02/2021 at 15:37:06.

 READING SIMULATION OPTIONS
 END OF SIMULATION OPTIONS

 READING SIMULATION TIMING

 OPENED experimental.tdis
 FILE TYPE:TDIS   UNIT 1002   STATUS:OLD                 
 FORMAT:FORMATTED              ACCESS:SEQUENTIAL          
 ACTION:READ                


 TDIS -- TEMPORAL DISCRETIZATION PACKAGE,
 VERSION 1 : 11/13/2014 - INPUT READ FROM UNIT 1002
 # File generated by Flopy version 3.3.5 on 12/02/2021 at 15:37:06.
 PROCESSING TDIS OPTIONS
    SIMULATION TIME UNIT IS DAYS
 END OF TDIS OPTIONS
 PROCESSING TDIS DIMENSIONS
    2 STRESS PERIOD(S) IN SIMULATION
 END OF TDIS DIMENSIONS
 PROCESSING TDIS PERIODDATA


 STRESS PERIOD     LENGTH       TIME STEPS     MULTIPLIER FOR DELT
 ----------------------------------------------------------------------------
        1         1.000000          1                    1.000
        2         1460.000         48                    1.000
 END OF TDIS PERIODDATA
 END OF SIMULATION TIMING

 READING SIMULATION MODELS
    GWF6 model EXPERIMENTAL will be created as model 1
 END OF SIMULATION MODELS

 READING SIMULATION EXCHANGES
 END OF SIMULATION EXCHANGES

 READING SOLUTIONGROUP

 Creating solution: SLN_1           

 OPENED experimental.ims
 FILE TYPE:IMS   UNIT 1014   STATUS:OLD                 
 FORMAT:FORMATTED              ACCESS:SEQUENTIAL          
 ACTION:READ                

 END OF SIMULATION SOLUTIONGROUP

 IMS -- ITERATIVE MODEL SOLUTION PACKAGE, VERSION 6, 4/28/2017
         INPUT READ FROM UNIT 1014
 # File generated by Flopy version 3.3.5 on 12/02/2021 at 15:37:06.

 PROCESSING IMS OPTIONS
 SIMPLE OPTION:
 DEFAULT SOLVER INPUT VALUES FOR FAST SOLUTIONS
 END OF IMS OPTIONS

 PROCESSING IMS NONLINEAR
 END OF IMS NONLINEAR DATA
 ***UNDER-RELAXATION WILL NOT BE USED***
 
 ***IMS LINEAR SOLVER WILL BE USED***

 IMSLINEAR -- UNSTRUCTURED LINEAR SOLUTION PACKAGE, VERSION 8, 04/28/2017

 PROCESSING LINEAR DATA
 END OF LINEAR DATA
 
 OUTER ITERATION CONVERGENCE CRITERION    (DVCLOSE) =    0.100000E-01
 MAXIMUM NUMBER OF OUTER ITERATIONS        (MXITER) = 750
 SOLVER PRINTOUT INDEX                     (IPRIMS) = 1
 NONLINEAR ITERATION METHOD            (NONLINMETH) = 0
 LINEAR SOLUTION METHOD                   (LINMETH) = 1

       SOLUTION BY THE BICONJUGATE-GRADIENT STABILIZED METHOD
 ------------------------------------------------------------------
 MAXIMUM OF 750 CALLS OF SOLUTION ROUTINE
 MAXIMUM OF 50 INTERNAL ITERATIONS PER CALL TO SOLUTION ROUTINE
 LINEAR ACCELERATION METHOD            = BCGS      
 MATRIX PRECONDITIONING TYPE           = INCOMPLETE LU       
 MATRIX SCALING APPROACH               = NO SCALING          
 MATRIX REORDERING APPROACH            = ORIGINAL ORDERING        
 NUMBER OF ORTHOGONALIZATIONS          = 0
 HEAD CHANGE CRITERION FOR CLOSURE     =    0.10000E-02
 RESIDUAL CHANGE CRITERION FOR CLOSURE =    0.10000E+00
 RESIDUAL CONVERGENCE OPTION           = 0
 RESIDUAL CONVERGENCE NORM             = INFINITY NORM   
 RELAXATION FACTOR                     =    0.00000E+00



1
                            STRESS PERIOD NO.    1, LENGTH =   1.000000    
                            -----------------------------------------------

                              NUMBER OF TIME STEPS =     1

                               MULTIPLIER FOR DELT =     1.000

                            INITIAL TIME STEP SIZE =   1.000000    



 PSEUDO-TRANSIENT CONTINUATION WILL BE APPLIED TO MODEL 1 ("EXPERIMENTAL") DURING THIS TIME STEP

 OUTER ITERATION SUMMARY
 ----------------------------------------------------------------------------------------------------------
                                OUTER      INNER                    STEP   MAXIMUM CHANGE MODEL-(CELLID) OR
 OUTER ITERATION STEP       ITERATION  ITERATION  MAXIMUM CHANGE SUCCESS             MODEL-PACKAGE-(NUMBER)
 ----------------------------------------------------------------------------------------------------------
 Model                              1          9     -0.25237898                             1_GWF-(3,3783)
 Model                              2         11     -0.11095991                             1_GWF-(3,1019)
 Model                              3          9 -4.48075216E-02                             1_GWF-(3,1021)
 Model                              4          9 -1.90811814E-02                             1_GWF-(3,2969)
 Model                              5          1  9.82407724E-04    *PTC                       1_GWF-(1,36)
 Model                              6          1 -8.71128559E-04    *PTC                     1_GWF-(3,3093)
 Model                              7          6 -1.40925178E-02                             1_GWF-(3,1746)
 Model                              8          1  3.45216178E-04    *PTC                       1_GWF-(1,36)
 Model                              9          1 -2.37186538E-04    *PTC                     1_GWF-(3,1399)
 Model                             10          1 -7.62106432E-04       *                     1_GWF-(1,1721)
 Package                           10                 -5.0946363                     1_GWF-SFR-(261)-inflow
 Model                             11          1 -3.30100906E-04       *                     1_GWF-(2,1708)
 Package                           11                  9.5092849                     1_GWF-SFR-(210)-inflow
 Model                             12          1 -2.50005027E-04       *                     1_GWF-(1,1708)
 Package                           12                  12.261051                     1_GWF-SFR-(210)-inflow
 Model                             13          1 -4.37261021E-04       *                     1_GWF-(3,2748)
 Package                           13                  6.1998518                     1_GWF-SFR-(210)-inflow
 Model                             14          1 -1.51252061E-04       *                     1_GWF-(3,2757)
 Package                           14                  10.765485                     1_GWF-SFR-(210)-inflow
 Model                             15          1 -5.02298671E-04       *                     1_GWF-(3,2759)
 Package                           15                  4.7862518                     1_GWF-SFR-(210)-inflow
 Model                             16          1 -1.12183047E-04       *                     1_GWF-(1,1709)
 Package                           16                  9.4136347                     1_GWF-SFR-(210)-inflow
 Model                             17          1 -2.62944623E-04       *                     1_GWF-(2,1710)
 Package                           17                  4.2999542                     1_GWF-SFR-(210)-inflow
 Model                             18          1 -1.10314405E-04       *                     1_GWF-(1,1871)
 Package                           18                  2.8313250                     1_GWF-SFR-(210)-inflow
 Model                             19          1 -1.59430066E-04       *                     1_GWF-(1,1587)
 Package                           19                  4.1247427                     1_GWF-SFR-(210)-inflow
 Model                             20          1 -1.15244255E-04       *                     1_GWF-(1,1871)
 Package                           20                 0.93586534                     1_GWF-SFR-(210)-inflow
 Model                             21          1 -1.23473526E-04       *                     1_GWF-(1,2024)
 Package                           21                  3.5530847                     1_GWF-SFR-(210)-inflow
 Model                             22          1 -1.18823624E-04       *                     1_GWF-(1,1871)
 Package                           22                 0.62268384                     1_GWF-SFR-(221)-inflow
 Model                             23          1 -1.03980455E-04       *                     1_GWF-(1,2024)
 Package                           23                  3.0714333                     1_GWF-SFR-(210)-inflow
 Model                             24          1 -1.19987373E-04       *                     1_GWF-(1,1871)
 Package                           24                 0.58617682                     1_GWF-SFR-(221)-inflow
 Model                             25          1 -8.94097687E-05       *                     1_GWF-(1,2024)
 Package                           25                  2.6755727                     1_GWF-SFR-(210)-inflow
 Model                             26          1 -1.20941352E-04       *                     1_GWF-(1,1871)
 Package                           26                 0.58739678                     1_GWF-SFR-(221)-inflow
 Model                             27          1 -7.65393496E-05       *                     1_GWF-(1,2024)
 Package                           27                  2.3696942                     1_GWF-SFR-(210)-inflow
 Model                             28          1 -1.25177740E-04       *                     1_GWF-(1,1871)
 Package                           28                 0.58134063                     1_GWF-SFR-(221)-inflow
 Model                             29          1 -6.38235538E-05       *                     1_GWF-(1,2024)
 Package                           29                  2.1733262                     1_GWF-SFR-(210)-inflow
 Model                             30          1 -1.39375036E-04       *                     1_GWF-(1,1870)
 Package                           30                 0.55803458                     1_GWF-SFR-(221)-inflow
 Model                             31          1 -5.06355199E-05       *                     1_GWF-(1,2024)
 Package                           31                  2.1412936                     1_GWF-SFR-(210)-inflow
 Model                             32          1 -1.82833893E-04       *                     1_GWF-(1,1870)
 Package                           32                 0.52541873                     1_GWF-SFR-(221)-inflow
 Model                             33          1 -3.71894238E-05       *                     1_GWF-(1,2024)
 Package                           33                  2.4697681                     1_GWF-SFR-(210)-inflow
 Model                             34          1 -3.33014896E-04       *                     1_GWF-(1,1870)
 Package                           34                 0.51814376                     1_GWF-SFR-(210)-inflow
 Model                             35          1 -2.98408673E-05       *                      1_GWF-(3,118)
 Package                           35                  4.0034074                     1_GWF-SFR-(210)-inflow
 Model                             36          1 -2.89036608E-04       *                     1_GWF-(1,1724)
 Package                           36                 0.74382112                     1_GWF-SFR-(210)-inflow
 Model                             37          1  1.71417095E-05       *                       1_GWF-(3,86)
 Package                           37                  3.3019958                     1_GWF-SFR-(210)-inflow
 Model                             38          1 -1.65134189E-04       *                     1_GWF-(1,1870)
 Package                           38                 0.76461493                     1_GWF-SFR-(210)-inflow
 Model                             39          1 -1.28568757E-05       *                     1_GWF-(1,1322)
 Package                           39                  2.3024309                     1_GWF-SFR-(210)-inflow
 Model                             40          1 -2.09170496E-04       *                     1_GWF-(1,1729)
 Package                           40                 0.20725666                     1_GWF-SFR-(210)-inflow
 Model                             41          1 -1.08313592E-05       *                      1_GWF-(3,118)
 Package                           41                  2.8396018                     1_GWF-SFR-(210)-inflow
 Model                             42          1 -1.39132982E-04       *                     1_GWF-(1,1729)
 Package                           42                 0.17640142                     1_GWF-SFR-(210)-inflow
 Model                             43          1  1.45465868E-05       *                      1_GWF-(2,624)
 Package                           43                  1.8841120                     1_GWF-SFR-(210)-inflow
 Model                             44          1 -1.14124472E-05       *                     1_GWF-(2,1724)
 Package                           44                 0.36853357                     1_GWF-SFR-(210)-inflow
 Model                             45          1 -2.05936158E-05       *                     1_GWF-(1,1729)
 Package                           45             9.17920778E-02                     1_GWF-SFR-(210)-inflow
 Model                             46          1 -1.01644427E-05       *                     1_GWF-(2,1727)
 Package                           46                 0.15250993                     1_GWF-SFR-(210)-inflow
 Model                             47          1 -1.00575849E-05       *                     1_GWF-(1,1729)
 Package                           47                 0.27248349                     1_GWF-SFR-(210)-inflow
 Model                             48          1 -1.48144046E-05       *                     1_GWF-(2,1727)
 Package                           48             8.84291526E-02                     1_GWF-SFR-(210)-inflow
 Model                             49          1 -5.67241173E-06       *                     1_GWF-(1,1729)
 Package                           49                 0.28251497                     1_GWF-SFR-(210)-inflow
 Model                             50          1 -2.20092441E-05       *                     1_GWF-(2,1727)
 Package                           50             5.05219046E-02                     1_GWF-SFR-(210)-inflow
 Model                             51          1 -3.79881206E-06       *                     1_GWF-(1,1730)
 Package                           51                 0.33370196                     1_GWF-SFR-(210)-inflow
 Model                             52          1 -3.14288683E-05       *                     1_GWF-(1,1724)
 Package                           52             5.18050302E-02                     1_GWF-SFR-(210)-inflow
 Model                             53          1 -2.54547103E-06       *                     1_GWF-(1,1728)
 Package                           53                 0.45122674                     1_GWF-SFR-(210)-inflow
 Model                             54          1 -2.53929925E-05       *                     1_GWF-(1,1729)
 Package                           54             3.80632076E-02                     1_GWF-SFR-(210)-inflow
 Model                             55          1 -2.14325803E-06       *                     1_GWF-(1,1585)
 Package                           55                 0.40843878                     1_GWF-SFR-(210)-inflow
 Model                             56          1 -3.22184813E-05       *                     1_GWF-(1,1729)
 Package                           56             3.80042434E-02                     1_GWF-SFR-(221)-inflow
 Model                             57          1  1.25932684E-06       *                       1_GWF-(3,86)
 Package                           57                 0.42359293                     1_GWF-SFR-(210)-inflow
 Model                             58          1 -1.00954569E-05       *                     1_GWF-(1,1870)
 Package                           58             7.29200458E-02                     1_GWF-SFR-(210)-inflow
 Model                             59          1 -1.67408507E-06       *                     1_GWF-(1,1724)
 Package                           59                 0.15909475                     1_GWF-SFR-(210)-inflow
 Model                             60          1 -1.66308953E-05       *                     1_GWF-(1,1729)
 Package                           60             2.29190972E-02                     1_GWF-SFR-(210)-inflow
 Model                             61          1 -7.87022316E-07       *                      1_GWF-(2,964)
 Package                           61                 0.27290191                     1_GWF-SFR-(210)-inflow
 Model                             62          1 -1.12344783E-05       *                     1_GWF-(1,1723)
 Package                           62             1.10020559E-02                     1_GWF-SFR-(210)-inflow
 Model                             63          1  1.72941873E-06       *                       1_GWF-(3,21)
 Package                           63                 0.11415198                     1_GWF-SFR-(210)-inflow
 Model                             64          1 -1.60326414E-06       *                     1_GWF-(3,1738)
 Package                           64             3.49874468E-02                     1_GWF-SFR-(210)-inflow
 Model                             65          1 -1.66121032E-06       *                     1_GWF-(2,1722)
 Package                           65             3.84325547E-02                     1_GWF-SFR-(210)-inflow
 Model                             66          1 -2.10259006E-06       *                     1_GWF-(1,1729)
 Package                           66             3.70941118E-02                     1_GWF-SFR-(210)-inflow
 Model                             67          1 -9.67043121E-07       *                     1_GWF-(2,1870)
 Package                           67             2.37261833E-02                     1_GWF-SFR-(210)-inflow
 Model                             68          1 -1.45784361E-06       *                     1_GWF-(1,1725)
 Package                           68             2.42046706E-02                     1_GWF-SFR-(221)-inflow
 Model                             69          1 -9.02999204E-07       *                     1_GWF-(1,1730)
 Package                           69             1.52085114E-02                     1_GWF-SFR-(210)-inflow
 Model                             70          1 -1.35679446E-06       *                     1_GWF-(1,1726)
 Package                           70             2.23646971E-02                     1_GWF-SFR-(210)-inflow
 Model                             71          1 -7.60884120E-07       *                     1_GWF-(1,1730)
 Package                           71             1.18124451E-02                     1_GWF-SFR-(210)-inflow
 Model                             72          1 -1.42441752E-06       *                     1_GWF-(1,1726)
 Package                           72             2.12828060E-02                     1_GWF-SFR-(210)-inflow
 Model                             73          1 -6.01647514E-07       *                     1_GWF-(1,1870)
 Package                           73             1.16346177E-02                     1_GWF-SFR-(210)-inflow
 Model                             74          1 -1.68205707E-06       *                     1_GWF-(1,1729)
 Package                           74             1.94018785E-02                     1_GWF-SFR-(210)-inflow
 Model                             75          1 -4.43238804E-07       *                     1_GWF-(1,1870)
 Package                           75             1.47113360E-02                     1_GWF-SFR-(210)-inflow
 Model                             76          1 -2.32783503E-06       *                     1_GWF-(1,1729)
 Package                           76             1.72838118E-02                     1_GWF-SFR-(210)-inflow
 Model                             77          1 -2.99612651E-07       *                     1_GWF-(1,1870)
 Package                           77             2.41988806E-02                     1_GWF-SFR-(210)-inflow
 Model                             78          1 -3.36685045E-06       *                     1_GWF-(1,1729)
 Package                           78             1.50890813E-02                     1_GWF-SFR-(210)-inflow
 Model                             79          1 -2.61689081E-07       *                      1_GWF-(3,118)
 Package                           79             4.48075238E-02                     1_GWF-SFR-(210)-inflow
 Model                             80          1 -3.22359890E-06       *                     1_GWF-(1,1729)
 Package                           80             9.79741508E-03       *             1_GWF-SFR-(210)-inflow
 ----------------------------------------------------------------------------------------------------------


 80 CALLS TO NUMERICAL SOLUTION IN TIME STEP 1 STRESS PERIOD 1
 119 TOTAL ITERATIONS
1
                            STRESS PERIOD NO.    2, LENGTH =   1460.000    
                            -----------------------------------------------

                              NUMBER OF TIME STEPS =    48

                               MULTIPLIER FOR DELT =     1.000

                            INITIAL TIME STEP SIZE =   30.41667    

 OUTER ITERATION SUMMARY
 ----------------------------------------------------------------------------------------------------------
                                OUTER      INNER                    STEP   MAXIMUM CHANGE MODEL-(CELLID) OR
 OUTER ITERATION STEP       ITERATION  ITERATION  MAXIMUM CHANGE SUCCESS             MODEL-PACKAGE-(NUMBER)
 ----------------------------------------------------------------------------------------------------------
 Model                              1          1 -5.02712076E-05       *                     1_GWF-(1,3583)
 Package                            1                 -1012493.6                     1_GWF-SFR-(210)-inflow
 Model                              2          1 -7.07239564E-05       *                     1_GWF-(1,3583)
 Package                            2                  27.316299                     1_GWF-SFR-(210)-inflow
 Model                              3          1 -1.72255787E-05       *                     1_GWF-(3,3521)
 Package                            3                  55.548008                     1_GWF-SFR-(210)-inflow
 Model                              4          1 -5.04036873E-05       *                     1_GWF-(3,3582)
 Package                            4                  22.892690                     1_GWF-SFR-(210)-inflow
 Model                              5          1 -1.06992104E-05       *                     1_GWF-(1,1727)
 Package                            5                  53.586385                     1_GWF-SFR-(210)-inflow
 Model                              6          1 -5.31133452E-05       *                     1_GWF-(1,1870)
 Package                            6                  15.450573                     1_GWF-SFR-(210)-inflow
 Model                              7          1 -8.12056010E-06       *                     1_GWF-(1,1859)
 Package                            7                  48.660836                     1_GWF-SFR-(210)-inflow
 Model                              8          1 -6.01793477E-05       *                     1_GWF-(2,1727)
 Package                            8                  10.003467                     1_GWF-SFR-(210)-inflow
 Model                              9          1 -6.32778082E-06       *                     1_GWF-(1,1860)
 Package                            9                  47.147049                     1_GWF-SFR-(210)-inflow
 Model                             10          1 -6.81346078E-05       *                     1_GWF-(1,1724)
 Package                           10                  6.1112310                     1_GWF-SFR-(210)-inflow
 Model                             11          1 -6.02885902E-06       *                     1_GWF-(3,3723)
 Package                           11                  45.771656                     1_GWF-SFR-(210)-inflow
 Model                             12          1 -3.51418406E-05       *                     1_GWF-(2,1591)
 Package                           12                  3.3481491                     1_GWF-SFR-(210)-inflow
 Model                             13          1 -1.12857029E-05       *                     1_GWF-(2,3563)
 Package                           13                  15.667619                     1_GWF-SFR-(210)-inflow
 Model                             14          1 -2.13896237E-05       *                     1_GWF-(3,2644)
 Package                           14                  3.8749790                     1_GWF-SFR-(210)-inflow
 Model                             15          1 -5.30484948E-06       *                     1_GWF-(2,1591)
 Package                           15                  12.112639                     1_GWF-SFR-(210)-inflow
 Model                             16          1 -1.63671507E-05       *                     1_GWF-(2,1596)
 Package                           16                  1.3963285                     1_GWF-SFR-(210)-inflow
 Model                             17          1 -3.88150622E-06       *                     1_GWF-(3,2644)
 Package                           17                  8.4320612                     1_GWF-SFR-(210)-inflow
 Model                             18          1 -1.30847324E-05       *                     1_GWF-(1,1724)
 Package                           18                  1.8858669                     1_GWF-SFR-(210)-inflow
 Model                             19          1 -2.87233226E-06       *                     1_GWF-(2,1590)
 Package                           19                  6.8474467                     1_GWF-SFR-(210)-inflow
 Model                             20          1 -1.22102986E-05       *                     1_GWF-(2,1733)
 Package                           20                  1.8373058                     1_GWF-SFR-(210)-inflow
 Model                             21          1 -2.21087404E-06       *                     1_GWF-(1,1735)
 Package                           21                  6.0567565                     1_GWF-SFR-(210)-inflow
 Model                             22          1 -1.21774830E-05       *                     1_GWF-(1,1724)
 Package                           22                  1.5719114                     1_GWF-SFR-(210)-inflow
 Model                             23          1 -1.78920979E-06       *                     1_GWF-(2,1590)
 Package                           23                  6.2074466                     1_GWF-SFR-(210)-inflow
 Model                             24          1 -1.29281233E-05       *                     1_GWF-(2,1596)
 Package                           24                  1.2128847                     1_GWF-SFR-(210)-inflow
 Model                             25          1 -1.81770093E-06       *                     1_GWF-(3,2644)
 Package                           25                  5.8238007                     1_GWF-SFR-(210)-inflow
 Model                             26          1 -9.67033765E-06       *                     1_GWF-(3,2644)
 Package                           26                  1.1323306                     1_GWF-SFR-(210)-inflow
 Model                             27          1 -2.32467750E-06       *                     1_GWF-(3,3758)
 Package                           27                  4.1418597                     1_GWF-SFR-(210)-inflow
 Model                             28          1 -4.89590491E-06       *                     1_GWF-(2,1596)
 Package                           28                 0.62563203                     1_GWF-SFR-(210)-inflow
 Model                             29          1 -1.59834127E-06       *                     1_GWF-(1,1729)
 Package                           29                  1.9759085                     1_GWF-SFR-(210)-inflow
 Model                             30          1 -3.70183727E-06       *                     1_GWF-(1,1724)
 Package                           30                 0.60228929                     1_GWF-SFR-(210)-inflow
 Model                             31          1 -1.03871253E-06       *                     1_GWF-(2,1590)
 Package                           31                  1.8801221                     1_GWF-SFR-(210)-inflow
 Model                             32          1 -3.12137982E-06       *                     1_GWF-(2,1735)
 Package                           32                 0.40988058                     1_GWF-SFR-(210)-inflow
 Model                             33          1 -8.12060506E-07       *                     1_GWF-(1,1735)
 Package                           33                  1.6435366                     1_GWF-SFR-(210)-inflow
 Model                             34          1 -3.24524578E-06       *                     1_GWF-(1,1587)
 Package                           34                 0.37891353                     1_GWF-SFR-(210)-inflow
 Model                             35          1 -6.25593003E-07       *                     1_GWF-(2,1880)
 Package                           35                  1.6696970                     1_GWF-SFR-(210)-inflow
 Model                             36          1 -3.63769055E-06       *                     1_GWF-(2,1735)
 Package                           36                 0.33509459                     1_GWF-SFR-(210)-inflow
 Model                             37          1 -4.58812224E-07       *                     1_GWF-(1,1735)
 Package                           37                  1.7930462                     1_GWF-SFR-(210)-inflow
 Model                             38          1 -4.60070837E-06       *                     1_GWF-(1,1724)
 Package                           38                 0.32747996                     1_GWF-SFR-(210)-inflow
 Model                             39          1 -3.37280994E-07       *                      1_GWF-(3,118)
 Package                           39                  2.1545447                     1_GWF-SFR-(210)-inflow
 Model                             40          1 -3.48501098E-06       *                     1_GWF-(2,1591)
 Package                           40                 0.29608015                     1_GWF-SFR-(210)-inflow
 Model                             41          1 -5.21720864E-07       *                     1_GWF-(1,1724)
 Package                           41                  1.4442498                     1_GWF-SFR-(210)-inflow
 Model                             42          1 -2.03338558E-06       *                     1_GWF-(1,1724)
 Package                           42                 0.23338646                     1_GWF-SFR-(210)-inflow
 Model                             43          1 -6.62226000E-07       *                     1_GWF-(3,1019)
 Package                           43                 0.76368869                     1_GWF-SFR-(210)-inflow
 Model                             44          1 -9.39769535E-07       *                     1_GWF-(2,1733)
 Package                           44             7.79183212E-02                     1_GWF-SFR-(210)-inflow
 Model                             45          1 -2.30231592E-07       *                     1_GWF-(1,1729)
 Package                           45                 0.49256515                     1_GWF-SFR-(210)-inflow
 Model                             46          1 -1.23849776E-06       *                     1_GWF-(1,1724)
 Package                           46             7.27144110E-02                     1_GWF-SFR-(210)-inflow
 Model                             47          1 -1.61659841E-07       *                     1_GWF-(2,1589)
 Package                           47                 0.55424237                     1_GWF-SFR-(210)-inflow
 Model                             48          1 -1.08043548E-06       *                     1_GWF-(2,1733)
 Package                           48             8.46098268E-02                     1_GWF-SFR-(210)-inflow
 Model                             49          1 -1.78999159E-07       *                     1_GWF-(3,2644)
 Package                           49                 0.51107842                     1_GWF-SFR-(210)-inflow
 Model                             50          1 -9.93318935E-07       *                     1_GWF-(1,1724)
 Package                           50             5.20607038E-02                     1_GWF-SFR-(210)-inflow
 Model                             51          1 -1.44327572E-07       *                     1_GWF-(2,1594)
 Package                           51                 0.41513796                     1_GWF-SFR-(210)-inflow
 Model                             52          1 -5.84451442E-07       *                     1_GWF-(2,1733)
 Package                           52             5.61060712E-02                     1_GWF-SFR-(210)-inflow
 Model                             53          1 -2.01209389E-07       *                     1_GWF-(3,2644)
 Package                           53                 0.20091213                     1_GWF-SFR-(210)-inflow
 Model                             54          1 -3.37843460E-07       *                     1_GWF-(1,1724)
 Package                           54             6.39869861E-02                     1_GWF-SFR-(210)-inflow
 Model                             55          1 -1.09077774E-07       *                     1_GWF-(2,1589)
 Package                           55                 0.15959114                     1_GWF-SFR-(210)-inflow
 Model                             56          1 -2.58103682E-07       *                     1_GWF-(2,1735)
 Package                           56             3.46116391E-02                     1_GWF-SFR-(210)-inflow
 Model                             57          1 -8.23216340E-08       *                     1_GWF-(1,1735)
 Package                           57                 0.12722726                     1_GWF-SFR-(210)-inflow
 Model                             58          1 -2.57971294E-07       *                     1_GWF-(1,1590)
 Package                           58             3.57824895E-02                     1_GWF-SFR-(210)-inflow
 Model                             59          1 -6.42547207E-08       *                     1_GWF-(2,1880)
 Package                           59                 0.12628731                     1_GWF-SFR-(210)-inflow
 Model                             60          1 -2.71234427E-07       *                     1_GWF-(2,1729)
 Package                           60             3.21472933E-02                     1_GWF-SFR-(210)-inflow
 Model                             61          1 -4.88177534E-08       *                     1_GWF-(2,1880)
 Package                           61                 0.12734029                     1_GWF-SFR-(210)-inflow
 Model                             62          1 -3.19698813E-07       *                     1_GWF-(1,1590)
 Package                           62             3.01892416E-02                     1_GWF-SFR-(210)-inflow
 Model                             63          1 -3.52074778E-08       *                     1_GWF-(2,1880)
 Package                           63                 0.14584894                     1_GWF-SFR-(210)-inflow
 Model                             64          1 -4.02822394E-07       *                     1_GWF-(2,1729)
 Package                           64             2.79614436E-02                     1_GWF-SFR-(210)-inflow
 Model                             65          1 -2.77241270E-08       *                      1_GWF-(3,118)
 Package                           65                 0.17940959                     1_GWF-SFR-(210)-inflow
 Model                             66          1 -2.99967013E-07       *                     1_GWF-(1,1724)
 Package                           66             2.66893810E-02                     1_GWF-SFR-(210)-inflow
 Model                             67          1 -2.03596926E-08       *                     1_GWF-(2,1596)
 Package                           67                 0.13022916                     1_GWF-SFR-(210)-inflow
 Model                             68          1 -1.85616415E-07       *                     1_GWF-(2,1596)
 Package                           68             1.69190659E-02                     1_GWF-SFR-(210)-inflow
 Model                             69          1 -4.37118217E-08       *                     1_GWF-(3,2644)
 Package                           69             6.88800408E-02                     1_GWF-SFR-(210)-inflow
 Model                             70          1 -1.31909133E-07       *                     1_GWF-(3,2644)
 Package                           70             1.30809348E-02                     1_GWF-SFR-(210)-inflow
 Model                             71          1 -3.73144644E-08       *                     1_GWF-(3,3405)
 Package                           71             5.17490139E-02                     1_GWF-SFR-(210)-inflow
 Model                             72          1 -6.05175501E-08       *                     1_GWF-(2,1596)
 Package                           72             7.07055334E-04       *             1_GWF-SFR-(143)-inflow
 ----------------------------------------------------------------------------------------------------------


 72 CALLS TO NUMERICAL SOLUTION IN TIME STEP 1 STRESS PERIOD 2
 72 TOTAL ITERATIONS

 OUTER ITERATION SUMMARY
 ----------------------------------------------------------------------------------------------------------
                                OUTER      INNER                    STEP   MAXIMUM CHANGE MODEL-(CELLID) OR
 OUTER ITERATION STEP       ITERATION  ITERATION  MAXIMUM CHANGE SUCCESS             MODEL-PACKAGE-(NUMBER)
 ----------------------------------------------------------------------------------------------------------
 Model                              1         13 -2.66395888E-02                             1_GWF-(1,2210)
 Model                              2          2 -2.47226816E-03       *                      1_GWF-(1,428)
 Package                            2                  15982.394                     1_GWF-SFR-(210)-inflow
 Model                              3          1 -4.05456416E-04       *                       1_GWF-(1,66)
 Package                            3                  6719.9116                     1_GWF-SFR-(210)-inflow
 Model                              4          1 -2.13518334E-04       *                       1_GWF-(1,63)
 Package                            4                  2442.1289                     1_GWF-SFR-(210)-inflow
 Model                              5          1 -1.86911323E-04       *                      1_GWF-(2,134)
 Package                            5                  1157.2342                     1_GWF-SFR-(210)-inflow
 Model                              6          1 -1.70545350E-04       *                      1_GWF-(2,134)
 Package                            6                  702.79411                     1_GWF-SFR-(210)-inflow
 Model                              7          1 -1.46030578E-04       *                      1_GWF-(2,106)
 Package                            7                  506.46490                     1_GWF-SFR-(210)-inflow
 Model                              8          1 -1.59316601E-04       *                     1_GWF-(1,1727)
 Package                            8                  386.13596                     1_GWF-SFR-(210)-inflow
 Model                              9          1 -1.74443734E-04       *                     1_GWF-(1,1727)
 Package                            9                  311.76117                     1_GWF-SFR-(210)-inflow
 Model                             10          1 -1.91744091E-04       *                     1_GWF-(1,1724)
 Package                           10                  255.28505                     1_GWF-SFR-(210)-inflow
 Model                             11          1 -2.01660002E-04       *                     1_GWF-(1,1726)
 Package                           11                  217.83135                     1_GWF-SFR-(210)-inflow
 Model                             12          1 -2.13723873E-04       *                     1_GWF-(1,1726)
 Package                           12                  186.06780                     1_GWF-SFR-(210)-inflow
 Model                             13          1 -2.11667404E-04       *                     1_GWF-(1,1870)
 Package                           13                  166.36425                     1_GWF-SFR-(210)-inflow
 Model                             14          1 -2.16462794E-04       *                     1_GWF-(1,1870)
 Package                           14                  145.42637                     1_GWF-SFR-(210)-inflow
 Model                             15          1 -2.00629589E-04       *                     1_GWF-(3,1722)
 Package                           15                  135.03789                     1_GWF-SFR-(210)-inflow
 Model                             16          1 -2.05793155E-04       *                     1_GWF-(3,1722)
 Package                           16                  116.79457                     1_GWF-SFR-(210)-inflow
 Model                             17          1 -1.74054285E-04       *                     1_GWF-(3,1722)
 Package                           17                  114.18798                     1_GWF-SFR-(210)-inflow
 Model                             18          1 -1.93579043E-04       *                     1_GWF-(3,1722)
 Package                           18                  91.639079                     1_GWF-SFR-(210)-inflow
 Model                             19          1 -1.28835783E-04       *                     1_GWF-(3,1722)
 Package                           19                  104.35907                     1_GWF-SFR-(210)-inflow
 Model                             20          1 -1.77269779E-04       *                     1_GWF-(3,1722)
 Package                           20                  59.836054                     1_GWF-SFR-(210)-inflow
 Model                             21          1 -6.17010307E-05       *                     1_GWF-(3,1722)
 Package                           21                  106.70860                     1_GWF-SFR-(210)-inflow
 Model                             22          1 -1.53103385E-04       *                     1_GWF-(3,1722)
 Package                           22                  15.936825                     1_GWF-SFR-(210)-inflow
 Model                             23          1 -3.98964574E-05       *                     1_GWF-(3,1725)
 Package                           23                  93.185782                     1_GWF-SFR-(210)-inflow
 Model                             24          1 -2.04056521E-04       *                     1_GWF-(3,1722)
 Package                           24                  7.3610225                     1_GWF-SFR-(210)-inflow
 Model                             25          1 -2.71215132E-05       *                     1_GWF-(3,1724)
 Package                           25                  104.29908                     1_GWF-SFR-(210)-inflow
 Model                             26          1 -2.64502346E-04       *                     1_GWF-(3,1722)
 Package                           26                  10.411933                     1_GWF-SFR-(221)-inflow
 Model                             27          1 -1.81220999E-05       *                     1_GWF-(3,1724)
 Package                           27                  119.63316                     1_GWF-SFR-(210)-inflow
 Model                             28          1 -1.84238688E-04       *                     1_GWF-(3,1726)
 Package                           28                  18.227123                     1_GWF-SFR-(221)-inflow
 Model                             29          1 -1.59399002E-05       *                     1_GWF-(3,1722)
 Package                           29                  79.818955                     1_GWF-SFR-(210)-inflow
 Model                             30          1 -1.79235031E-04       *                     1_GWF-(3,1726)
 Package                           30                  18.210978                     1_GWF-SFR-(210)-inflow
 Model                             31          1 -1.01157800E-05       *                     1_GWF-(3,1724)
 Package                           31                  78.983760                     1_GWF-SFR-(210)-inflow
 Model                             32          1 -1.65694897E-04       *                     1_GWF-(3,1726)
 Package                           32                  13.159262                     1_GWF-SFR-(210)-inflow
 Model                             33          1 -8.31441784E-06       *                      1_GWF-(3,118)
 Package                           33                  71.726606                     1_GWF-SFR-(210)-inflow
 Model                             34          1 -6.99681007E-05       *                     1_GWF-(3,1722)
 Package                           34                  8.8255994                     1_GWF-SFR-(210)-inflow
 Model                             35          1 -5.59786582E-06       *                     1_GWF-(3,1727)
 Package                           35                  36.367809                     1_GWF-SFR-(210)-inflow
 Model                             36          1 -7.40773167E-05       *                     1_GWF-(3,1724)
 Package                           36                  4.9599204                     1_GWF-SFR-(210)-inflow
 Model                             37          1  1.03737212E-05       *                       1_GWF-(2,17)
 Package                           37                  22.706327                     1_GWF-SFR-(210)-inflow
 Model                             38          1 -1.22227155E-05       *                     1_GWF-(3,1724)
 Package                           38                  8.1743643                     1_GWF-SFR-(210)-inflow
 Model                             39          1 -5.97853071E-06       *                     1_GWF-(1,1870)
 Package                           39                  12.289877                     1_GWF-SFR-(210)-inflow
 Model                             40          1 -3.68232630E-05       *                     1_GWF-(3,1722)
 Package                           40                  2.1065895                     1_GWF-SFR-(210)-inflow
 Model                             41          1 -2.75431424E-06       *                     1_GWF-(3,1727)
 Package                           41                  17.216445                     1_GWF-SFR-(210)-inflow
 Model                             42          1 -3.59307309E-05       *                     1_GWF-(3,1724)
 Package                           42                  1.6367306                     1_GWF-SFR-(210)-inflow
 Model                             43          1 -1.90933346E-06       *                     1_GWF-(2,1720)
 Package                           43                  16.936368                     1_GWF-SFR-(210)-inflow
 Model                             44          1 -2.17382658E-05       *                     1_GWF-(2,1720)
 Package                           44                  1.7216437                     1_GWF-SFR-(210)-inflow
 Model                             45          1 -1.92796836E-06       *                     1_GWF-(3,1596)
 Package                           45                  8.9237666                     1_GWF-SFR-(210)-inflow
 Model                             46          1 -1.09583472E-05       *                     1_GWF-(3,1728)
 Package                           46                  1.3825828                     1_GWF-SFR-(210)-inflow
 Model                             47          1 -1.59019234E-06       *                     1_GWF-(3,1320)
 Package                           47                  7.0687559                     1_GWF-SFR-(210)-inflow
 Model                             48          1 -8.89022942E-06       *                     1_GWF-(2,1720)
 Package                           48                 0.71580412                     1_GWF-SFR-(210)-inflow
 Model                             49          1 -2.07587703E-06       *                     1_GWF-(3,1591)
 Package                           49                  1.5557608                     1_GWF-SFR-(210)-inflow
 Model                             50          1 -2.78389322E-06       *                     1_GWF-(3,1738)
 Package                           50                  1.4704740                     1_GWF-SFR-(210)-inflow
 Model                             51          1 -2.08114506E-06       *                     1_GWF-(2,1724)
 Package                           51                  2.6718735                     1_GWF-SFR-(210)-inflow
 Model                             52          1 -3.64852332E-06       *                     1_GWF-(3,1722)
 Package                           52                 0.53326105                     1_GWF-SFR-(210)-inflow
 Model                             53          1 -1.16646308E-06       *                     1_GWF-(3,1724)
 Package                           53                  2.1564236                     1_GWF-SFR-(210)-inflow
 Model                             54          1 -4.91350929E-06       *                     1_GWF-(3,1726)
 Package                           54                 0.32559089                     1_GWF-SFR-(210)-inflow
 Model                             55          1 -7.99751405E-07       *                     1_GWF-(3,1726)
 Package                           55                  2.4007906                     1_GWF-SFR-(210)-inflow
 Model                             56          1 -6.43615840E-06       *                     1_GWF-(3,1726)
 Package                           56                 0.38615275                     1_GWF-SFR-(210)-inflow
 Model                             57          1 -5.29774894E-07       *                     1_GWF-(3,1724)
 Package                           57                  2.9454913                     1_GWF-SFR-(210)-inflow
 Model                             58          1 -7.70777280E-06       *                     1_GWF-(3,1724)
 Package                           58                 0.42268412                     1_GWF-SFR-(210)-inflow
 Model                             59          1 -4.40260948E-07       *                      1_GWF-(3,118)
 Package                           59                  3.3915609                     1_GWF-SFR-(210)-inflow
 Model                             60          1 -4.56250700E-06       *                     1_GWF-(3,1726)
 Package                           60                 0.46766442                     1_GWF-SFR-(210)-inflow
 Model                             61          1 -2.67504561E-07       *                     1_GWF-(2,1724)
 Package                           61                  2.0121245                     1_GWF-SFR-(210)-inflow
 Model                             62          1 -3.43790012E-06       *                     1_GWF-(2,1724)
 Package                           62                 0.29994891                     1_GWF-SFR-(210)-inflow
 Model                             63          1 -2.67671027E-07       *                      1_GWF-(3,118)
 Package                           63                  1.6524470                     1_GWF-SFR-(210)-inflow
 Model                             64          1 -2.56070979E-06       *                     1_GWF-(3,1729)
 Package                           64                 0.15631077                     1_GWF-SFR-(210)-inflow
 Model                             65          1  3.05001123E-07       *                      1_GWF-(3,709)
 Package                           65                  1.1087562                     1_GWF-SFR-(210)-inflow
 Model                             66          1 -7.15554904E-07       *                     1_GWF-(2,1586)
 Package                           66                 0.17767257                     1_GWF-SFR-(210)-inflow
 Model                             67          1 -3.28741010E-07       *                      1_GWF-(3,711)
 Package                           67                 0.34295416                     1_GWF-SFR-(210)-inflow
 Model                             68          1 -6.21999050E-07       *                     1_GWF-(3,1590)
 Package                           68                 0.11001726                     1_GWF-SFR-(210)-inflow
 Model                             69          1 -1.85019928E-07       *                     1_GWF-(3,1880)
 Package                           69                 0.36414383                     1_GWF-SFR-(210)-inflow
 Model                             70          1 -7.14048952E-07       *                     1_GWF-(3,1725)
 Package                           70             3.50574732E-02                     1_GWF-SFR-(221)-inflow
 Model                             71          1 -1.05232033E-07       *                     1_GWF-(2,1587)
 Package                           71                 0.39878622                     1_GWF-SFR-(210)-inflow
 Model                             72          1 -1.24125867E-06       *                     1_GWF-(1,1724)
 Package                           72             2.98942044E-02                     1_GWF-SFR-(221)-inflow
 Model                             73          1 -8.70266206E-08       *                      1_GWF-(3,118)
 Package                           73                 0.49250601                     1_GWF-SFR-(210)-inflow
 Model                             74          1 -4.94968589E-07       *                     1_GWF-(3,1723)
 Package                           74             9.93272440E-02                     1_GWF-SFR-(210)-inflow
 Model                             75          1 -7.96781308E-08       *                     1_GWF-(2,1587)
 Package                           75                 0.25146515                     1_GWF-SFR-(210)-inflow
 Model                             76          1 -7.55608454E-07       *                     1_GWF-(1,1724)
 Package                           76             4.06777706E-02                     1_GWF-SFR-(210)-inflow
 Model                             77          1 -5.80582196E-08       *                      1_GWF-(3,118)
 Package                           77                 0.35747322                     1_GWF-SFR-(210)-inflow
 Model                             78          1 -3.13810688E-07       *                     1_GWF-(3,1586)
 Package                           78             3.81703985E-02                     1_GWF-SFR-(210)-inflow
 Model                             79          1 -1.10518101E-07       *                       1_GWF-(3,51)
 Package                           79             9.13789886E-02                     1_GWF-SFR-(210)-inflow
 Model                             80          1 -1.35546117E-07       *                     1_GWF-(3,1880)
 Package                           80             5.48707931E-02                     1_GWF-SFR-(210)-inflow
 Model                             81          1 -5.36125810E-08       *                     1_GWF-(3,1590)
 Package                           81             8.96482283E-02                     1_GWF-SFR-(210)-inflow
 Model                             82          1 -1.84615942E-07       *                     1_GWF-(3,1722)
 Package                           82             9.22055185E-03       *             1_GWF-SFR-(221)-inflow
 ----------------------------------------------------------------------------------------------------------


 82 CALLS TO NUMERICAL SOLUTION IN TIME STEP 2 STRESS PERIOD 2
 95 TOTAL ITERATIONS

 OUTER ITERATION SUMMARY
 ----------------------------------------------------------------------------------------------------------
                                OUTER      INNER                    STEP   MAXIMUM CHANGE MODEL-(CELLID) OR
 OUTER ITERATION STEP       ITERATION  ITERATION  MAXIMUM CHANGE SUCCESS             MODEL-PACKAGE-(NUMBER)
 ----------------------------------------------------------------------------------------------------------
 Model                              1         11 -1.80416545E-02                              1_GWF-(1,826)
 Model                              2          2 -2.78987798E-03       *                     1_GWF-(1,3368)
 Package                            2                  9917.0353                     1_GWF-SFR-(210)-inflow
 Model                              3          1 -2.53366406E-04       *                       1_GWF-(1,66)
 Package                            3                  4187.2033                     1_GWF-SFR-(210)-inflow
 Model                              4          1 -1.34466517E-04       *                       1_GWF-(1,63)
 Package                            4                  1533.0713                     1_GWF-SFR-(210)-inflow
 Model                              5          1 -1.27479062E-04       *                     1_GWF-(3,1724)
 Package                            5                  729.90712                     1_GWF-SFR-(210)-inflow
 Model                              6          1 -1.52924673E-04       *                     1_GWF-(3,1724)
 Package                            6                  445.05102                     1_GWF-SFR-(210)-inflow
 Model                              7          1 -1.70795325E-04       *                     1_GWF-(3,1724)
 Package                            7                  318.71116                     1_GWF-SFR-(210)-inflow
 Model                              8          1 -1.88931983E-04       *                     1_GWF-(3,1724)
 Package                            8                  239.68419                     1_GWF-SFR-(210)-inflow
 Model                              9          1 -1.98986730E-04       *                     1_GWF-(3,1724)
 Package                            9                  191.58243                     1_GWF-SFR-(210)-inflow
 Model                             10          1 -2.12193213E-04       *                     1_GWF-(3,1724)
 Package                           10                  153.86290                     1_GWF-SFR-(210)-inflow
 Model                             11          1 -2.07996262E-04       *                     1_GWF-(3,1725)
 Package                           11                  131.64939                     1_GWF-SFR-(210)-inflow
 Model                             12          1 -2.11925444E-04       *                     1_GWF-(3,1720)
 Package                           12                  111.29027                     1_GWF-SFR-(210)-inflow
 Model                             13          1 -1.86916482E-04       *                     1_GWF-(3,1720)
 Package                           13                  103.40972                     1_GWF-SFR-(210)-inflow
 Model                             14          1 -1.91075619E-04       *                     1_GWF-(3,1722)
 Package                           14                  87.848684                     1_GWF-SFR-(210)-inflow
 Model                             15          1 -1.48197738E-04       *                     1_GWF-(3,1722)
 Package                           15                  88.980180                     1_GWF-SFR-(210)-inflow
 Model                             16          1 -1.73199841E-04       *                     1_GWF-(3,1722)
 Package                           16                  66.384075                     1_GWF-SFR-(210)-inflow
 Model                             17          1 -8.63937724E-05       *                     1_GWF-(3,1722)
 Package                           17                  85.579444                     1_GWF-SFR-(210)-inflow
 Model                             18          1 -1.33704166E-04       *                     1_GWF-(3,1722)
 Package                           18                  32.099655                     1_GWF-SFR-(210)-inflow
 Model                             19          1 -4.26099820E-05       *                     1_GWF-(3,1722)
 Package                           19                  76.862510                     1_GWF-SFR-(210)-inflow
 Model                             20          1 -1.70564989E-04       *                     1_GWF-(3,1722)
 Package                           20                  10.660208                     1_GWF-SFR-(210)-inflow
 Model                             21          1 -2.78920906E-05       *                     1_GWF-(3,1726)
 Package                           21                  85.824097                     1_GWF-SFR-(210)-inflow
 Model                             22          1 -2.34713785E-04       *                     1_GWF-(3,1722)
 Package                           22                  8.3515603                     1_GWF-SFR-(210)-inflow
 Model                             23          1 -1.83669158E-05       *                     1_GWF-(3,1724)
 Package                           23                  103.83509                     1_GWF-SFR-(210)-inflow
 Model                             24          1 -1.86194278E-04       *                     1_GWF-(3,1726)
 Package                           24                  12.005999                     1_GWF-SFR-(210)-inflow
 Model                             25          1 -1.52810775E-05       *                     1_GWF-(3,1722)
 Package                           25                  81.994963                     1_GWF-SFR-(210)-inflow
 Model                             26          1 -1.68315937E-04       *                     1_GWF-(3,1726)
 Package                           26                  14.402470                     1_GWF-SFR-(210)-inflow
 Model                             27          1 -1.04067861E-05       *                     1_GWF-(3,1726)
 Package                           27                  71.777640                     1_GWF-SFR-(210)-inflow
 Model                             28          1 -1.45653514E-04       *                     1_GWF-(3,1726)
 Package                           28                  13.178592                     1_GWF-SFR-(210)-inflow
 Model                             29          1 -7.18604588E-06       *                      1_GWF-(3,118)
 Package                           29                  61.333092                     1_GWF-SFR-(210)-inflow
 Model                             30          1 -9.32504031E-05       *                     1_GWF-(3,1725)
 Package                           30                  8.7236025                     1_GWF-SFR-(210)-inflow
 Model                             31          1 -5.21382688E-06       *                       1_GWF-(3,53)
 Package                           31                  46.774405                     1_GWF-SFR-(210)-inflow
 Model                             32          1 -5.94673848E-05       *                     1_GWF-(1,1870)
 Package                           32                  5.2133303                     1_GWF-SFR-(210)-inflow
 Model                             33          1 -1.39261244E-05       *                      1_GWF-(2,301)
 Package                           33                  15.050281                     1_GWF-SFR-(210)-inflow
 Model                             34          1 -1.08891646E-05       *                     1_GWF-(3,1727)
 Package                           34                  7.7923564                     1_GWF-SFR-(210)-inflow
 Model                             35          1 -7.49470516E-06       *                     1_GWF-(1,1724)
 Package                           35                  11.068301                     1_GWF-SFR-(210)-inflow
 Model                             36          1 -3.03318487E-05       *                     1_GWF-(3,1726)
 Package                           36                  3.1212070                     1_GWF-SFR-(210)-inflow
 Model                             37          1 -3.70685137E-06       *                     1_GWF-(2,1724)
 Package                           37                  15.602460                     1_GWF-SFR-(210)-inflow
 Model                             38          1 -3.23512905E-05       *                     1_GWF-(3,1726)
 Package                           38                  1.1593947                     1_GWF-SFR-(210)-inflow
 Model                             39          1 -2.28315275E-06       *                     1_GWF-(1,1869)
 Package                           39                  14.706276                     1_GWF-SFR-(210)-inflow
 Model                             40          1 -2.99035748E-05       *                     1_GWF-(3,1725)
 Package                           40                  1.6112451                     1_GWF-SFR-(210)-inflow
 Model                             41          1 -1.67594740E-06       *                      1_GWF-(3,118)
 Package                           41                  14.036301                     1_GWF-SFR-(210)-inflow
 Model                             42          1 -2.20493249E-05       *                     1_GWF-(3,1726)
 Package                           42                  1.5016339                     1_GWF-SFR-(210)-inflow
 Model                             43          1 -1.57153244E-06       *                      1_GWF-(3,266)
 Package                           43                  8.7556301                     1_GWF-SFR-(210)-inflow
 Model                             44          1 -8.13095249E-06       *                     1_GWF-(2,1721)
 Package                           44                  1.7719001                     1_GWF-SFR-(210)-inflow
 Model                             45          1 -1.56722092E-06       *                     1_GWF-(3,1370)
 Package                           45                  4.4391221                     1_GWF-SFR-(210)-inflow
 Model                             46          1 -1.03360900E-05       *                     1_GWF-(3,1738)
 Package                           46                 0.41527134                     1_GWF-SFR-(210)-inflow
 Model                             47          1 -1.12615746E-06       *                      1_GWF-(3,949)
 Package                           47                  4.9734270                     1_GWF-SFR-(210)-inflow
 Model                             48          1 -5.46353394E-06       *                     1_GWF-(3,1709)
 Package                           48                 0.48415155                     1_GWF-SFR-(210)-inflow
 Model                             49          1 -1.81159885E-06       *                     1_GWF-(3,1370)
 Package                           49                  1.8257307                     1_GWF-SFR-(210)-inflow
 Model                             50          1 -3.51494708E-06       *                     1_GWF-(3,1728)
 Package                           50                 0.82809324                     1_GWF-SFR-(210)-inflow
 Model                             51          1 -7.84367955E-07       *                     1_GWF-(3,2006)
 Package                           51                  2.1682725                     1_GWF-SFR-(210)-inflow
 Model                             52          1 -4.61371130E-06       *                     1_GWF-(3,1721)
 Package                           52                 0.15571673                     1_GWF-SFR-(210)-inflow
 Model                             53          1 -5.23068081E-07       *                     1_GWF-(3,1735)
 Package                           53                  1.9336026                     1_GWF-SFR-(210)-inflow
 Model                             54          1 -4.49976872E-06       *                     1_GWF-(3,1735)
 Package                           54                 0.35844574                     1_GWF-SFR-(210)-inflow
 Model                             55          1 -4.17435587E-07       *                     1_GWF-(3,1709)
 Package                           55                  2.3313751                     1_GWF-SFR-(210)-inflow
 Model                             56          1 -3.97761258E-06       *                     1_GWF-(3,1714)
 Package                           56                 0.24147511                     1_GWF-SFR-(210)-inflow
 Model                             57          1 -4.98964255E-07       *                       1_GWF-(3,53)
 Package                           57                  1.1205134                     1_GWF-SFR-(210)-inflow
 Model                             58          1 -1.14824508E-06       *                     1_GWF-(3,1739)
 Package                           58                 0.44081393                     1_GWF-SFR-(210)-inflow
 Model                             59          1 -4.59869369E-07       *                     1_GWF-(3,1709)
 Package                           59                 0.96307567                     1_GWF-SFR-(210)-inflow
 Model                             60          1 -1.49604114E-06       *                     1_GWF-(3,1721)
 Package                           60                 0.12001276                     1_GWF-SFR-(210)-inflow
 Model                             61          1 -2.68172215E-07       *                     1_GWF-(3,1738)
 Package                           61                 0.58071211                     1_GWF-SFR-(210)-inflow
 Model                             62          1 -1.51418976E-06       *                     1_GWF-(3,1729)
 Package                           62                 0.17568577                     1_GWF-SFR-(210)-inflow
 Model                             63          1 -2.05959509E-07       *                     1_GWF-(2,1719)
 Package                           63                 0.78162548                     1_GWF-SFR-(210)-inflow
 Model                             64          1 -1.80722949E-06       *                     1_GWF-(2,1720)
 Package                           64                 0.10639648                     1_GWF-SFR-(210)-inflow
 Model                             65          1 -1.67792763E-07       *                       1_GWF-(3,53)
 Package                           65                 0.71543917                     1_GWF-SFR-(210)-inflow
 Model                             66          1 -1.51117263E-06       *                     1_GWF-(3,1738)
 Package                           66                 0.13305127                     1_GWF-SFR-(210)-inflow
 Model                             67          1  1.45980323E-07       *                       1_GWF-(3,86)
 Package                           67                 0.82921084                     1_GWF-SFR-(210)-inflow
 Model                             68          1 -8.76780092E-07       *                     1_GWF-(2,1716)
 Package                           68             8.41104872E-02                     1_GWF-SFR-(210)-inflow
 Model                             69          1 -2.60674256E-07       *                     1_GWF-(3,1162)
 Package                           69                 0.13021463                     1_GWF-SFR-(210)-inflow
 Model                             70          1 -2.10920604E-07       *                     1_GWF-(2,1869)
 Package                           70                 0.16193449                     1_GWF-SFR-(210)-inflow
 Model                             71          1 -1.62085087E-07       *                     1_GWF-(3,1729)
 Package                           71                 0.22295112                     1_GWF-SFR-(210)-inflow
 Model                             72          1 -4.05203622E-07       *                     1_GWF-(3,1725)
 Package                           72             4.04326359E-02                     1_GWF-SFR-(210)-inflow
 Model                             73          1 -8.30223712E-08       *                     1_GWF-(3,1726)
 Package                           73                 0.24209831                     1_GWF-SFR-(210)-inflow
 Model                             74          1 -5.98400874E-07       *                     1_GWF-(3,1726)
 Package                           74             1.29207521E-02                     1_GWF-SFR-(210)-inflow
 Model                             75          1 -5.30666000E-08       *                     1_GWF-(3,1724)
 Package                           75                 0.26661886                     1_GWF-SFR-(210)-inflow
 Model                             76          1 -6.80946329E-07       *                     1_GWF-(3,1724)
 Package                           76             4.29107162E-02                     1_GWF-SFR-(210)-inflow
 Model                             77          1 -3.98173654E-08       *                      1_GWF-(3,118)
 Package                           77                 0.30548121                     1_GWF-SFR-(210)-inflow
 Model                             78          1 -5.67219104E-07       *                     1_GWF-(3,1726)
 Package                           78             3.92045091E-02                     1_GWF-SFR-(210)-inflow
 Model                             79          1 -3.17122328E-08       *                      1_GWF-(3,118)
 Package                           79                 0.24950704                     1_GWF-SFR-(210)-inflow
 Model                             80          1 -2.54127713E-07       *                     1_GWF-(3,1723)
 Package                           80             3.56060973E-02                     1_GWF-SFR-(210)-inflow
 Model                             81          1 -2.58245052E-08       *                     1_GWF-(2,1591)
 Package                           81                 0.11189946                     1_GWF-SFR-(210)-inflow
 Model                             82          1 -2.47700569E-07       *                     1_GWF-(2,1727)
 Package                           82             1.66300298E-02                     1_GWF-SFR-(210)-inflow
 Model                             83          1  1.87164062E-08       *                      1_GWF-(2,297)
 Package                           83                 0.14054542                     1_GWF-SFR-(210)-inflow
 Model                             84          1 -8.96734775E-08       *                     1_GWF-(3,1584)
 Package                           84             1.08256036E-02                     1_GWF-SFR-(210)-inflow
 Model                             85          1 -3.75729314E-08       *                     1_GWF-(2,1596)
 Package                           85            -8.79395092E-03       *             1_GWF-SFR-(261)-inflow
 ----------------------------------------------------------------------------------------------------------


 85 CALLS TO NUMERICAL SOLUTION IN TIME STEP 3 STRESS PERIOD 2
 96 TOTAL ITERATIONS

 OUTER ITERATION SUMMARY
 ----------------------------------------------------------------------------------------------------------
                                OUTER      INNER                    STEP   MAXIMUM CHANGE MODEL-(CELLID) OR
 OUTER ITERATION STEP       ITERATION  ITERATION  MAXIMUM CHANGE SUCCESS             MODEL-PACKAGE-(NUMBER)
 ----------------------------------------------------------------------------------------------------------
 Model                              1         11  1.71108121E-02                              1_GWF-(1,826)
 Model                              2          1 -8.82167911E-04       *                     1_GWF-(1,3368)
 Package                            2                 -10460.187                     1_GWF-SFR-(210)-inflow
 Model                              3          1  2.72427788E-04       *                       1_GWF-(1,63)
 Package                            3                 -3774.8237                     1_GWF-SFR-(210)-inflow
 Model                              4          1  1.61073181E-04       *                      1_GWF-(2,204)
 Package                            4                 -1704.8335                     1_GWF-SFR-(210)-inflow
 Model                              5          1  1.45175728E-04       *                      1_GWF-(2,100)
 Package                            5                 -883.41080                     1_GWF-SFR-(210)-inflow
 Model                              6          1  1.51684808E-04       *                     1_GWF-(3,1724)
 Package                            6                 -541.38821                     1_GWF-SFR-(210)-inflow
 Model                              7          1  1.69070017E-04       *                     1_GWF-(3,1724)
 Package                            7                 -377.02984                     1_GWF-SFR-(210)-inflow
 Model                              8          1  1.86372681E-04       *                     1_GWF-(3,1724)
 Package                            8                 -278.87466                     1_GWF-SFR-(210)-inflow
 Model                              9          1  2.00917522E-04       *                     1_GWF-(3,1724)
 Package                            9                 -216.75574                     1_GWF-SFR-(210)-inflow
 Model                             10          1  2.15349458E-04       *                     1_GWF-(3,1724)
 Package                           10                 -172.20142                     1_GWF-SFR-(210)-inflow
 Model                             11          1  2.20980756E-04       *                     1_GWF-(3,1724)
 Package                           11                 -142.37766                     1_GWF-SFR-(210)-inflow
 Model                             12          1  2.22789255E-04       *                     1_GWF-(3,1724)
 Package                           12                 -120.45011                     1_GWF-SFR-(210)-inflow
 Model                             13          1  2.07989863E-04       *                     1_GWF-(3,1720)
 Package                           13                 -107.82505                     1_GWF-SFR-(210)-inflow
 Model                             14          1  1.97771646E-04       *                     1_GWF-(3,1722)
 Package                           14                 -95.819633                     1_GWF-SFR-(210)-inflow
 Model                             15          1  1.72592197E-04       *                     1_GWF-(3,1722)
 Package                           15                 -90.103985                     1_GWF-SFR-(210)-inflow
 Model                             16          1  1.69163215E-04       *                     1_GWF-(3,1722)
 Package                           16                 -78.047958                     1_GWF-SFR-(210)-inflow
 Model                             17          1  1.31817834E-04       *                     1_GWF-(3,1722)
 Package                           17                 -79.735345                     1_GWF-SFR-(210)-inflow
 Model                             18          1  1.46918735E-04       *                     1_GWF-(3,1722)
[...]
 Model                              8          1  2.46921506E-04       *                     1_GWF-(3,1724)
 Package                            8                 -311.14080                     1_GWF-SFR-(210)-inflow
 Model                              9          1  2.62309808E-04       *                     1_GWF-(3,1724)
 Package                            9                 -248.13885                     1_GWF-SFR-(210)-inflow
 Model                             10          1  2.82796438E-04       *                     1_GWF-(3,1724)
 Package                           10                 -198.65090                     1_GWF-SFR-(210)-inflow
 Model                             11          1  2.77559933E-04       *                     1_GWF-(3,1724)
 Package                           11                 -170.47936                     1_GWF-SFR-(210)-inflow
 Model                             12          1  2.83820428E-04       *                     1_GWF-(3,1720)
 Package                           12                 -144.24074                     1_GWF-SFR-(210)-inflow
 Model                             13          1  2.46268383E-04       *                     1_GWF-(3,1722)
 Package                           13                 -135.63494                     1_GWF-SFR-(210)-inflow
 Model                             14          1  2.53900923E-04       *                     1_GWF-(3,1722)
 Package                           14                 -114.48790                     1_GWF-SFR-(210)-inflow
 Model                             15          1  1.89149841E-04       *                     1_GWF-(3,1722)
 Package                           15                 -118.44671                     1_GWF-SFR-(210)-inflow
 Model                             16          1  2.26330914E-04       *                     1_GWF-(3,1722)
 Package                           16                 -84.400717                     1_GWF-SFR-(210)-inflow
 Model                             17          1  9.80221537E-05       *                     1_GWF-(3,1722)
 Package                           17                 -115.32165                     1_GWF-SFR-(210)-inflow
 Model                             18          1  1.72183842E-04       *                     1_GWF-(3,1722)
 Package                           18                 -34.734530                     1_GWF-SFR-(210)-inflow
 Model                             19          1  5.31164005E-05       *                     1_GWF-(3,1722)
 Package                           19                 -99.739079                     1_GWF-SFR-(210)-inflow
 Model                             20          1  2.32997220E-04       *                     1_GWF-(3,1722)
 Package                           20                 -14.153823                     1_GWF-SFR-(210)-inflow
 Model                             21          1  3.47743682E-05       *                     1_GWF-(3,1726)
 Package                           21                 -115.93800                     1_GWF-SFR-(210)-inflow
 Model                             22          1  3.17244697E-04       *                     1_GWF-(3,1722)
 Package                           22                 -12.379397                     1_GWF-SFR-(210)-inflow
 Model                             23          1  2.28807799E-05       *                     1_GWF-(3,1724)
 Package                           23                 -141.22198                     1_GWF-SFR-(210)-inflow
 Model                             24          1  2.23330341E-04       *                     1_GWF-(3,1726)
 Package                           24                 -17.271139                     1_GWF-SFR-(210)-inflow
 Model                             25          1  2.02764666E-05       *                     1_GWF-(3,1722)
 Package                           25                 -101.80158                     1_GWF-SFR-(210)-inflow
 Model                             26          1  2.27754840E-04       *                     1_GWF-(3,1726)
 Package                           26                 -18.421826                     1_GWF-SFR-(210)-inflow
 Model                             27          1  1.27278359E-05       *                     1_GWF-(3,1726)
 Package                           27                 -98.485962                     1_GWF-SFR-(210)-inflow
 Model                             28          1  1.70951623E-04       *                     1_GWF-(3,1726)
 Package                           28                 -17.630454                     1_GWF-SFR-(210)-inflow
 Model                             29          1  9.07919960E-06       *                     1_GWF-(1,1724)
 Package                           29                 -73.963335                     1_GWF-SFR-(210)-inflow
 Model                             30          1  1.22213113E-04       *                     1_GWF-(3,1725)
 Package                           30                 -10.606129                     1_GWF-SFR-(210)-inflow
 Model                             31          1  6.29766845E-06       *                       1_GWF-(3,53)
 Package                           31                 -62.061657                     1_GWF-SFR-(210)-inflow
 Model                             32          1  7.90325309E-05       *                     1_GWF-(3,1729)
 Package                           32                 -6.4495923                     1_GWF-SFR-(210)-inflow
 Model                             33          1  1.84109146E-05       *                      1_GWF-(2,301)
 Package                           33                 -21.112367                     1_GWF-SFR-(210)-inflow
 Model                             34          1  1.32358809E-05       *                     1_GWF-(3,1727)
 Package                           34                 -10.458908                     1_GWF-SFR-(210)-inflow
 Model                             35          1  9.87801278E-06       *                     1_GWF-(3,1722)
 Package                           35                 -13.415281                     1_GWF-SFR-(210)-inflow
 Model                             36          1  3.61806429E-05       *                     1_GWF-(3,1726)
 Package                           36                 -4.2517488                     1_GWF-SFR-(210)-inflow
 Model                             37          1  4.82043455E-06       *                     1_GWF-(2,1724)
 Package                           37                 -19.348674                     1_GWF-SFR-(210)-inflow
 Model                             38          1  3.74439492E-05       *                     1_GWF-(3,1726)
 Package                           38                 -1.3306744                     1_GWF-SFR-(210)-inflow
 Model                             39          1  2.96689544E-06       *                     1_GWF-(1,1870)
 Package                           39                 -17.257469                     1_GWF-SFR-(210)-inflow
 Model                             40          1  3.88264460E-05       *                     1_GWF-(3,1725)
 Package                           40                 -1.9554424                     1_GWF-SFR-(210)-inflow
 Model                             41          1  2.08258263E-06       *                      1_GWF-(3,118)
 Package                           41                 -18.541780                     1_GWF-SFR-(210)-inflow
 Model                             42          1  2.81134614E-05       *                     1_GWF-(3,1726)
 Package                           42                 -1.8850451                     1_GWF-SFR-(210)-inflow
 Model                             43          1  1.90300068E-06       *                      1_GWF-(3,266)
 Package                           43                 -10.803519                     1_GWF-SFR-(210)-inflow
 Model                             44          1  9.15601620E-06       *                     1_GWF-(2,1720)
 Package                           44                 -2.3683720                     1_GWF-SFR-(210)-inflow
 Model                             45          1  1.85879918E-06       *                     1_GWF-(3,1732)
 Package                           45                 -5.8169730                     1_GWF-SFR-(210)-inflow
 Model                             46          1  1.30733122E-05       *                     1_GWF-(3,1738)
 Package                           46                -0.56308731                     1_GWF-SFR-(210)-inflow
 Model                             47          1  1.26264771E-06       *                     1_GWF-(3,1047)
 Package                           47                 -5.1103895                     1_GWF-SFR-(210)-inflow
 Model                             48          1  5.51809592E-06       *                     1_GWF-(3,1713)
 Package                           48                 -1.0195920                     1_GWF-SFR-(210)-inflow
 Model                             49          1  1.59532263E-06       *                     1_GWF-(3,1741)
 Package                           49                 -3.2192297                     1_GWF-SFR-(210)-inflow
 Model                             50          1  6.47343796E-06       *                     1_GWF-(3,1729)
 Package                           50                -0.54047319                     1_GWF-SFR-(210)-inflow
 Model                             51          1  8.22834920E-07       *                     1_GWF-(3,1714)
 Package                           51                 -2.9427557                     1_GWF-SFR-(210)-inflow
 Model                             52          1  6.99387809E-06       *                     1_GWF-(3,1721)
 Package                           52                -0.49555816                     1_GWF-SFR-(210)-inflow
 Model                             53          1  6.86243567E-07       *                     1_GWF-(3,1741)
 Package                           53                 -3.2354573                     1_GWF-SFR-(210)-inflow
 Model                             54          1  6.03742731E-06       *                     1_GWF-(3,1739)
 Package                           54                -0.45270509                     1_GWF-SFR-(210)-inflow
 Model                             55          1  5.81853925E-07       *                     1_GWF-(3,1709)
 Package                           55                 -2.7312526                     1_GWF-SFR-(210)-inflow
 Model                             56          1  2.64362623E-06       *                     1_GWF-(3,1714)
 Package                           56                -0.34537912                     1_GWF-SFR-(221)-inflow
 Model                             57          1  7.21149092E-07       *                     1_GWF-(3,1744)
 Package                           57                 -1.1447248                     1_GWF-SFR-(210)-inflow
 Model                             58          1  2.29347248E-06       *                     1_GWF-(3,1739)
 Package                           58                -0.31638919                     1_GWF-SFR-(210)-inflow
 Model                             59          1  4.17857052E-07       *                     1_GWF-(3,1712)
 Package                           59                 -1.1555055                     1_GWF-SFR-(210)-inflow
 Model                             60          1  2.55127128E-06       *                     1_GWF-(3,1719)
 Package                           60                -0.17836579                     1_GWF-SFR-(210)-inflow
 Model                             61          1  3.25452163E-07       *                     1_GWF-(3,1744)
 Package                           61                 -1.1033891                     1_GWF-SFR-(210)-inflow
 Model                             62          1  2.48904354E-06       *                     1_GWF-(3,1739)
 Package                           62                -0.20474106                     1_GWF-SFR-(210)-inflow
 Model                             63          1  2.68149648E-07       *                     1_GWF-(3,1709)
 Package                           63                 -1.1912279                     1_GWF-SFR-(210)-inflow
 Model                             64          1  1.53935414E-06       *                     1_GWF-(3,1713)
 Package                           64                -0.16487526                     1_GWF-SFR-(210)-inflow
 Model                             65          1  3.22054518E-07       *                     1_GWF-(3,1744)
 Package                           65                -0.55169461                     1_GWF-SFR-(210)-inflow
 Model                             66          1  1.01674493E-06       *                     1_GWF-(3,1739)
 Package                           66                -0.16124619                     1_GWF-SFR-(210)-inflow
 Model                             67          1  2.18507665E-07       *                     1_GWF-(3,1712)
 Package                           67                -0.57350927                     1_GWF-SFR-(210)-inflow
 Model                             68          1  1.06275508E-06       *                     1_GWF-(3,1716)
 Package                           68            -7.98017306E-02                     1_GWF-SFR-(210)-inflow
 Model                             69          1  1.70327013E-07       *                     1_GWF-(3,1744)
 Package                           69                -0.40797352                     1_GWF-SFR-(210)-inflow
 Model                             70          1  9.62904437E-07       *                     1_GWF-(3,1739)
 Package                           70                -0.10277745                     1_GWF-SFR-(210)-inflow
 Model                             71          1  1.34605870E-07       *                     1_GWF-(3,1712)
 Package                           71                -0.50110461                     1_GWF-SFR-(210)-inflow
 Model                             72          1  8.69031425E-07       *                     1_GWF-(3,1713)
 Package                           72            -7.01516365E-02                     1_GWF-SFR-(210)-inflow
 Model                             73          1  1.32644573E-07       *                       1_GWF-(3,53)
 Package                           73                -0.29752891                     1_GWF-SFR-(210)-inflow
 Model                             74          1  5.36111258E-07       *                     1_GWF-(3,1744)
 Package                           74            -8.02571658E-02                     1_GWF-SFR-(210)-inflow
 Model                             75          1  1.13392218E-07       *                     1_GWF-(3,1712)
 Package                           75                -0.31408207                     1_GWF-SFR-(210)-inflow
 Model                             76          1  4.74790824E-07       *                     1_GWF-(3,1713)
 Package                           76            -4.46482816E-02                     1_GWF-SFR-(221)-inflow
 Model                             77          1  9.46628802E-08       *                     1_GWF-(3,1744)
 Package                           77                -0.15748919                     1_GWF-SFR-(210)-inflow
 Model                             78          1  3.69350147E-07       *                     1_GWF-(3,1741)
 Package                           78            -5.37367782E-02                     1_GWF-SFR-(210)-inflow
 Model                             79          1  7.03581975E-08       *                     1_GWF-(3,1713)
 Package                           79                -0.20759056                     1_GWF-SFR-(210)-inflow
 Model                             80          1  4.37557503E-07       *                     1_GWF-(3,1716)
 Package                           80            -3.24146821E-02                     1_GWF-SFR-(210)-inflow
 Model                             81          1  5.67783616E-08       *                       1_GWF-(3,53)
 Package                           81                -0.16130971                     1_GWF-SFR-(210)-inflow
 Model                             82          1  3.71680301E-07       *                     1_GWF-(3,1741)
 Package                           82            -3.78346627E-02                     1_GWF-SFR-(210)-inflow
 Model                             83          1  4.81280722E-08       *                     1_GWF-(3,1712)
 Package                           83                -0.20177546                     1_GWF-SFR-(210)-inflow
 Model                             84          1  2.52449212E-07       *                     1_GWF-(3,1713)
 Package                           84            -2.61002237E-02                     1_GWF-SFR-(221)-inflow
 Model                             85          1  6.36856328E-08       *                      1_GWF-(3,326)
 Package                           85            -6.80687972E-02                     1_GWF-SFR-(210)-inflow
 Model                             86          1  1.25747135E-07       *                     1_GWF-(3,1741)
 Package                           86            -2.91329278E-02                     1_GWF-SFR-(210)-inflow
 Model                             87          1  3.92085155E-08       *                     1_GWF-(3,1713)
 Package                           87            -8.68345031E-02                     1_GWF-SFR-(210)-inflow
 Model                             88          1  1.75646790E-07       *                     1_GWF-(3,1723)
 Package                           88            -1.34178557E-02                     1_GWF-SFR-(210)-inflow
 Model                             89          1  2.53735664E-08       *                     1_GWF-(3,1741)
 Package                           89            -7.34468678E-02                     1_GWF-SFR-(210)-inflow
 Model                             90          1  2.07897472E-07       *                     1_GWF-(3,1738)
 Package                           90            -1.55773607E-02                     1_GWF-SFR-(210)-inflow
 Model                             91          1 -1.91770084E-08       *                       1_GWF-(3,86)
 Package                           91                -0.10202770                     1_GWF-SFR-(210)-inflow
 Model                             92          1  2.19643823E-07       *                     1_GWF-(3,1578)
 Package                           92            -1.46267528E-02                     1_GWF-SFR-(210)-inflow
 Model                             93          1  2.45012188E-08       *                       1_GWF-(3,53)
 Package                           93            -7.73457960E-02                     1_GWF-SFR-(210)-inflow
 Model                             94          1  6.99699001E-08       *                     1_GWF-(3,2022)
 Package                           94            -1.45381816E-02                     1_GWF-SFR-(210)-inflow
 Model                             95          1  2.25590213E-08       *                     1_GWF-(3,1574)
 Package                           95            -5.02359883E-02                     1_GWF-SFR-(210)-inflow
 Model                             96          1  6.29196677E-08       *                     1_GWF-(3,1586)
 Package                           96            -8.46018748E-03       *             1_GWF-SFR-(221)-inflow
 ----------------------------------------------------------------------------------------------------------


 96 CALLS TO NUMERICAL SOLUTION IN TIME STEP 48 STRESS PERIOD 2
 107 TOTAL ITERATIONS

 MEMORY MANAGER TOTAL STORAGE BY DATA TYPE, IN MEGABYTES
 -------------------------------
                    ALLOCATED   
 DATA TYPE           MEMORY     
 -------------------------------
 Character        0.16416900    
 Logical          4.40000000E-05
 Integer          2.5196120     
 Real             5.9314640     
 -------------------------------
 Total            8.6152890     
 -------------------------------


 
 Run end date and time (yyyy/mm/dd hh:mm:ss): 2021/12/02 15:40:02
 Elapsed run time: 21.791 Seconds
 Normal termination of simulation.
