                                   MODFLOW 6
                U.S. GEOLOGICAL SURVEY MODULAR HYDROLOGIC MODEL
                            VERSION 6.2.1 02/18/2021

   MODFLOW 6 compiled Feb 18 2021 21:14:51 with IFORT compiler (ver. 19.10.3)

This software has been approved for release by the U.S. Geological 
Survey (USGS). Although the software has been subjected to rigorous 
review, the USGS reserves the right to update the software as needed 
pursuant to further analysis and review. No warranty, expressed or 
implied, is made by the USGS or the U.S. Government as to the 
functionality of the software and related material nor shall the 
fact of release constitute any such warranty. Furthermore, the 
software is released on condition that neither the USGS nor the U.S. 
Government shall be held liable for any damages resulting from its 
authorized or unauthorized use. Also refer to the USGS Water 
Resources Software User Rights Notice for complete use, copyright, 
and distribution information.


System command used to initiate simulation:
..\bins\win\mf6

MODFLOW was compiled using uniform precision.

Real Variables
  KIND: 8
  TINY (smallest non-zero value):    2.225074-308
  HUGE (largest value):    1.797693+308
  PRECISION: 15
  BIT SIZE: 64

Integer Variables
  KIND: 4
  HUGE (largest value): 2147483647
  BIT SIZE: 32

Long Integer Variables
  KIND: 8
  HUGE (largest value): 9223372036854775807
  BIT SIZE: 64

Logical Variables
  KIND: 4
  BIT SIZE: 32
 

 OPENED mfsim.nam
 FILE TYPE:NAM   UNIT 1001   STATUS:OLD                 
 FORMAT:FORMATTED              ACCESS:SEQUENTIAL          
 ACTION:READ                

 # File generated by Flopy version 3.3.5 on 11/09/2021 at 14:54:55.

 READING SIMULATION OPTIONS
 END OF SIMULATION OPTIONS

 READING SIMULATION TIMING

 OPENED experimental.tdis
 FILE TYPE:TDIS   UNIT 1002   STATUS:OLD                 
 FORMAT:FORMATTED              ACCESS:SEQUENTIAL          
 ACTION:READ                


 TDIS -- TEMPORAL DISCRETIZATION PACKAGE,
 VERSION 1 : 11/13/2014 - INPUT READ FROM UNIT 1002
 # File generated by Flopy version 3.3.5 on 11/09/2021 at 14:54:55.
 PROCESSING TDIS OPTIONS
    SIMULATION TIME UNIT IS DAYS
 END OF TDIS OPTIONS
 PROCESSING TDIS DIMENSIONS
    2 STRESS PERIOD(S) IN SIMULATION
 END OF TDIS DIMENSIONS
 PROCESSING TDIS PERIODDATA


 STRESS PERIOD     LENGTH       TIME STEPS     MULTIPLIER FOR DELT
 ----------------------------------------------------------------------------
        1         1.000000          1                    1.000
        2         1460.000         48                    1.000
 END OF TDIS PERIODDATA
 END OF SIMULATION TIMING

 READING SIMULATION MODELS
    GWF6 model EXPERIMENTAL will be created as model 1
 END OF SIMULATION MODELS

 READING SIMULATION EXCHANGES
 END OF SIMULATION EXCHANGES

 READING SOLUTIONGROUP

 Creating solution: SLN_1           

 OPENED experimental.ims
 FILE TYPE:IMS   UNIT 1014   STATUS:OLD                 
 FORMAT:FORMATTED              ACCESS:SEQUENTIAL          
 ACTION:READ                

 END OF SIMULATION SOLUTIONGROUP

 IMS -- ITERATIVE MODEL SOLUTION PACKAGE, VERSION 6, 4/28/2017
         INPUT READ FROM UNIT 1014
 # File generated by Flopy version 3.3.5 on 11/09/2021 at 14:54:55.

 PROCESSING IMS OPTIONS
 SIMPLE OPTION:
 DEFAULT SOLVER INPUT VALUES FOR FAST SOLUTIONS
 END OF IMS OPTIONS

 PROCESSING IMS NONLINEAR
 END OF IMS NONLINEAR DATA
 ***UNDER-RELAXATION WILL NOT BE USED***
 
 ***IMS LINEAR SOLVER WILL BE USED***

 IMSLINEAR -- UNSTRUCTURED LINEAR SOLUTION PACKAGE, VERSION 8, 04/28/2017

 PROCESSING LINEAR DATA
 END OF LINEAR DATA
 
 OUTER ITERATION CONVERGENCE CRITERION    (DVCLOSE) =    0.100000E-01
 MAXIMUM NUMBER OF OUTER ITERATIONS        (MXITER) = 750
 SOLVER PRINTOUT INDEX                     (IPRIMS) = 1
 NONLINEAR ITERATION METHOD            (NONLINMETH) = 0
 LINEAR SOLUTION METHOD                   (LINMETH) = 1

       SOLUTION BY THE BICONJUGATE-GRADIENT STABILIZED METHOD
 ------------------------------------------------------------------
 MAXIMUM OF 750 CALLS OF SOLUTION ROUTINE
 MAXIMUM OF 50 INTERNAL ITERATIONS PER CALL TO SOLUTION ROUTINE
 LINEAR ACCELERATION METHOD            = BCGS      
 MATRIX PRECONDITIONING TYPE           = INCOMPLETE LU       
 MATRIX SCALING APPROACH               = NO SCALING          
 MATRIX REORDERING APPROACH            = ORIGINAL ORDERING        
 NUMBER OF ORTHOGONALIZATIONS          = 0
 HEAD CHANGE CRITERION FOR CLOSURE     =    0.10000E-02
 RESIDUAL CHANGE CRITERION FOR CLOSURE =    0.10000E+00
 RESIDUAL CONVERGENCE OPTION           = 0
 RESIDUAL CONVERGENCE NORM             = INFINITY NORM   
 RELAXATION FACTOR                     =    0.00000E+00



1
                            STRESS PERIOD NO.    1, LENGTH =   1.000000    
                            -----------------------------------------------

                              NUMBER OF TIME STEPS =     1

                               MULTIPLIER FOR DELT =     1.000

                            INITIAL TIME STEP SIZE =   1.000000    



 PSEUDO-TRANSIENT CONTINUATION WILL BE APPLIED TO MODEL 1 ("EXPERIMENTAL") DURING THIS TIME STEP

 OUTER ITERATION SUMMARY
 ----------------------------------------------------------------------------------------------------------
                                OUTER      INNER                    STEP   MAXIMUM CHANGE MODEL-(CELLID) OR
 OUTER ITERATION STEP       ITERATION  ITERATION  MAXIMUM CHANGE SUCCESS             MODEL-PACKAGE-(NUMBER)
 ----------------------------------------------------------------------------------------------------------
 Model                              1          6  1.12281975E-02                              1_GWF-(1,744)
 Model                              2          6  1.01919465E-02                              1_GWF-(1,744)
 Model                              3          5  7.72317093E-03    *PTC                      1_GWF-(1,744)
 Model                              4          5  8.12119614E-03    *PTC                     1_GWF-(3,1721)
 Model                              5          5  8.81364909E-03    *PTC                     1_GWF-(3,1727)
 Model                              6          5  8.12584442E-03    *PTC                     1_GWF-(3,1727)
 Model                              7          1  7.92908652E-04    *PTC                     1_GWF-(3,2025)
 Model                              8          1  7.66264505E-04    *PTC                     1_GWF-(3,2024)
 Model                              9          4  1.09293459E-02                             1_GWF-(3,1727)
 Model                             10          1  4.31338802E-04    *PTC                     1_GWF-(1,3315)
 Model                             11          1  2.08247812E-04    *PTC                     1_GWF-(3,2792)
 Model                             12          1  2.78786085E-04    *PTC                     1_GWF-(1,1729)
 Model                             13          1  4.10279305E-04    *PTC                     1_GWF-(1,1724)
 Model                             14          1  5.58181998E-04    *PTC                     1_GWF-(1,1722)
 Model                             15          1  5.02345635E-04    *PTC                     1_GWF-(1,1724)
 Model                             16          1  4.87248146E-04    *PTC                     1_GWF-(2,1724)
 Model                             17          1  3.75944769E-04    *PTC                     1_GWF-(1,1724)
 Model                             18          1  4.25104890E-04    *PTC                     1_GWF-(2,1724)
 Model                             19          1  1.89938506E-04    *PTC                     1_GWF-(1,1724)
 Model                             20          1  4.00303179E-04    *PTC                     1_GWF-(2,1724)
 Model                             21          1  1.17001346E-04    *PTC                     1_GWF-(3,1869)
 Model                             22          1  5.19263840E-04    *PTC                     1_GWF-(2,1724)
 Model                             23          1  7.96295576E-05    *PTC                     1_GWF-(1,1870)
 Model                             24          1  6.11139733E-04    *PTC                     1_GWF-(1,1724)
 Model                             25          1  7.52203716E-05    *PTC                      1_GWF-(3,226)
 Model                             26          1  5.53555900E-04    *PTC                     1_GWF-(1,1870)
 Model                             27          1  5.88977864E-05    *PTC                      1_GWF-(3,226)
 Model                             28          1  4.80555896E-04    *PTC                     1_GWF-(1,1724)
 Model                             29          1  4.80771768E-05    *PTC                      1_GWF-(3,226)
 Model                             30          1  2.96233878E-04       *                     1_GWF-(1,1870)
 Package                           30                 -1.4400513                     1_GWF-SFR-(210)-inflow
 Model                             31          1  3.37578834E-05       *                      1_GWF-(3,226)
 Package                           31                 -4.8415182                     1_GWF-SFR-(210)-inflow
 Model                             32          1  4.65404966E-04       *                     1_GWF-(1,1724)
 Package                           32                -0.50053570                     1_GWF-SFR-(210)-inflow
 Model                             33          1  2.51882852E-05       *                      1_GWF-(3,226)
 Package                           33                 -5.3722361                     1_GWF-SFR-(210)-inflow
 Model                             34          1  4.98688213E-05       *                     1_GWF-(1,1874)
 Package                           34                 -1.0935322                     1_GWF-SFR-(210)-inflow
 Model                             35          1  2.59714057E-05       *                     1_GWF-(1,1587)
 Package                           35                 -1.6423853                     1_GWF-SFR-(210)-inflow
 Model                             36          1  1.47259652E-04       *                     1_GWF-(1,1871)
 Package                           36                -0.24058175                     1_GWF-SFR-(221)-inflow
 Model                             37          1  1.32449756E-05       *                     1_GWF-(1,1587)
 Package                           37                 -1.7827812                     1_GWF-SFR-(210)-inflow
 Model                             38          1  5.43826556E-05       *                     1_GWF-(1,1724)
 Package                           38                -0.57187266                     1_GWF-SFR-(210)-inflow
 Model                             39          1  1.87541877E-05       *                     1_GWF-(1,1709)
 Package                           39                -0.70524182                     1_GWF-SFR-(210)-inflow
 Model                             40          1  5.62693105E-05       *                     1_GWF-(1,1587)
 Package                           40                -0.37828693                     1_GWF-SFR-(210)-inflow
 Model                             41          1  1.01066536E-05       *                     1_GWF-(1,1709)
 Package                           41                -0.83917653                     1_GWF-SFR-(210)-inflow
 Model                             42          1  5.94466871E-05       *                     1_GWF-(1,1870)
 Package                           42            -9.55051485E-02                     1_GWF-SFR-(210)-inflow
 Model                             43          1  8.23555771E-06       *                      1_GWF-(3,152)
 Package                           43                -0.99473835                     1_GWF-SFR-(210)-inflow
 Model                             44          1  8.22315974E-05       *                     1_GWF-(1,1724)
 Package                           44            -3.47578458E-02                     1_GWF-SFR-(210)-inflow
 Model                             45          1  7.66869081E-06       *                      1_GWF-(3,152)
 Package                           45                 -1.0956092                     1_GWF-SFR-(210)-inflow
 Model                             46          1  2.51422090E-05       *                     1_GWF-(3,1734)
 Package                           46                -0.14965687                     1_GWF-SFR-(210)-inflow
 Model                             47          1  6.29130264E-06       *                     1_GWF-(3,1869)
 Package                           47                -0.44262045                     1_GWF-SFR-(210)-inflow
 Model                             48          1  4.53193190E-05       *                     1_GWF-(1,1729)
 Package                           48            -6.32342389E-02                     1_GWF-SFR-(210)-inflow
 Model                             49          1 -3.19385515E-06       *                       1_GWF-(3,53)
 Package                           49                -0.56901122                     1_GWF-SFR-(210)-inflow
 Model                             50          1  1.97097547E-05       *                     1_GWF-(2,1870)
 Package                           50                -0.13507992                     1_GWF-SFR-(210)-inflow
 Model                             51          1  4.56140526E-06       *                       1_GWF-(3,25)
 Package                           51                -0.28475691                     1_GWF-SFR-(210)-inflow
 Model                             52          1  2.11681897E-05       *                     1_GWF-(1,1724)
 Package                           52            -4.08746495E-02                     1_GWF-SFR-(221)-inflow
 Model                             53          1  2.53061191E-06       *                      1_GWF-(3,150)
 Package                           53                -0.38359862                     1_GWF-SFR-(210)-inflow
 Model                             54          1  1.64062735E-05       *                     1_GWF-(1,1871)
 Package                           54             8.21028117E-03       *             1_GWF-SFR-(221)-inflow
 ----------------------------------------------------------------------------------------------------------


 54 CALLS TO NUMERICAL SOLUTION IN TIME STEP 1 STRESS PERIOD 1
 83 TOTAL ITERATIONS
1
                            STRESS PERIOD NO.    2, LENGTH =   1460.000    
                            -----------------------------------------------

                              NUMBER OF TIME STEPS =    48

                               MULTIPLIER FOR DELT =     1.000

                            INITIAL TIME STEP SIZE =   30.41667    

 OUTER ITERATION SUMMARY
 ----------------------------------------------------------------------------------------------------------
                                OUTER      INNER                    STEP   MAXIMUM CHANGE MODEL-(CELLID) OR
 OUTER ITERATION STEP       ITERATION  ITERATION  MAXIMUM CHANGE SUCCESS             MODEL-PACKAGE-(NUMBER)
 ----------------------------------------------------------------------------------------------------------
 Model                              1          1 -4.94392252E-05       *                     1_GWF-(1,3583)
 Package                            1                 -978128.75                     1_GWF-SFR-(210)-inflow
 Model                              2          1 -7.99977355E-05       *                     1_GWF-(1,3583)
 Package                            2                  25.336522                     1_GWF-SFR-(210)-inflow
 Model                              3          1 -1.95211563E-05       *                     1_GWF-(3,3722)
 Package                            3                  56.674780                     1_GWF-SFR-(210)-inflow
 Model                              4          1 -6.46835951E-05       *                     1_GWF-(3,3362)
 Package                            4                  21.349589                     1_GWF-SFR-(210)-inflow
 Model                              5          1 -1.05133824E-05       *                     1_GWF-(3,1727)
 Package                            5                  57.064340                     1_GWF-SFR-(210)-inflow
 Model                              6          1 -5.65136358E-05       *                     1_GWF-(3,1724)
 Package                            6                  14.842459                     1_GWF-SFR-(210)-inflow
 Model                              7          1 -1.05625532E-05       *                      1_GWF-(3,118)
 Package                            7                  50.769642                     1_GWF-SFR-(210)-inflow
 Model                              8          1 -6.92480201E-05       *                     1_GWF-(2,1727)
 Package                            8                  8.6292449                     1_GWF-SFR-(210)-inflow
 Model                              9          1 -9.32179051E-06       *                      1_GWF-(3,188)
 Package                            9                  49.954707                     1_GWF-SFR-(210)-inflow
 Model                             10          1 -5.91628153E-05       *                     1_GWF-(3,1727)
 Package                           10                  4.9563977                     1_GWF-SFR-(210)-inflow
 Model                             11          1 -2.02238810E-05       *                     1_GWF-(3,2810)
 Package                           11                  26.188849                     1_GWF-SFR-(210)-inflow
 Model                             12          1 -3.65826272E-05       *                     1_GWF-(3,2786)
 Package                           12                  3.1372255                     1_GWF-SFR-(210)-inflow
 Model                             13          1 -1.10385983E-05       *                     1_GWF-(3,1727)
 Package                           13                  13.326761                     1_GWF-SFR-(210)-inflow
 Model                             14          1 -1.90403511E-05       *                     1_GWF-(3,1724)
 Package                           14                  1.7219660                     1_GWF-SFR-(210)-inflow
 Model                             15          1 -5.59787767E-06       *                     1_GWF-(3,2786)
 Package                           15                  9.1284746                     1_GWF-SFR-(210)-inflow
 Model                             16          1 -1.49962273E-05       *                     1_GWF-(3,2786)
 Package                           16                  1.3171808                     1_GWF-SFR-(221)-inflow
 Model                             17          1 -3.51387672E-06       *                     1_GWF-(3,1727)
 Package                           17                  8.4846829                     1_GWF-SFR-(210)-inflow
 Model                             18          1 -1.49292136E-05       *                     1_GWF-(3,1724)
 Package                           18                  1.2850677                     1_GWF-SFR-(221)-inflow
 Model                             19          1 -2.72631451E-06       *                     1_GWF-(3,2785)
 Package                           19                  7.3131820                     1_GWF-SFR-(210)-inflow
 Model                             20          1 -1.40993103E-05       *                     1_GWF-(2,1727)
 Package                           20                  1.3659215                     1_GWF-SFR-(210)-inflow
 Model                             21          1 -2.25813523E-06       *                     1_GWF-(3,1727)
 Package                           21                  6.9566981                     1_GWF-SFR-(210)-inflow
 Model                             22          1 -1.54571654E-05       *                     1_GWF-(3,1727)
 Package                           22                  1.2938326                     1_GWF-SFR-(210)-inflow
 Model                             23          1 -2.92615846E-06       *                     1_GWF-(3,2786)
 Package                           23                  6.0431778                     1_GWF-SFR-(210)-inflow
 Model                             24          1 -1.17305560E-05       *                     1_GWF-(3,2786)
 Package                           24                  1.0680137                     1_GWF-SFR-(210)-inflow
 Model                             25          1 -3.11747246E-06       *                     1_GWF-(3,1727)
 Package                           25                  3.7422903                     1_GWF-SFR-(210)-inflow
 Model                             26          1 -6.88400399E-06       *                     1_GWF-(3,1727)
 Package                           26                 0.77389361                     1_GWF-SFR-(210)-inflow
 Model                             27          1 -2.24607140E-06       *                     1_GWF-(3,2786)
 Package                           27                  2.2437710                     1_GWF-SFR-(210)-inflow
 Model                             28          1 -3.92075478E-06       *                     1_GWF-(3,2786)
 Package                           28                 0.50543038                     1_GWF-SFR-(210)-inflow
 Model                             29          1 -1.21046472E-06       *                     1_GWF-(3,1727)
 Package                           29                  1.7910745                     1_GWF-SFR-(210)-inflow
 Model                             30          1 -3.42742953E-06       *                     1_GWF-(3,1724)
 Package                           30                 0.43531587                     1_GWF-SFR-(210)-inflow
 Model                             31          1 -8.10994010E-07       *                     1_GWF-(2,1879)
 Package                           31                  1.5950096                     1_GWF-SFR-(210)-inflow
 Model                             32          1 -3.16791656E-06       *                     1_GWF-(2,1720)
 Package                           32                 0.38150743                     1_GWF-SFR-(210)-inflow
 Model                             33          1 -6.07553858E-07       *                     1_GWF-(1,1860)
 Package                           33                  1.5571951                     1_GWF-SFR-(210)-inflow
 Model                             34          1 -3.52374508E-06       *                     1_GWF-(3,1724)
 Package                           34                 0.34305413                     1_GWF-SFR-(210)-inflow
 Model                             35          1 -5.54919353E-07       *                      1_GWF-(3,118)
 Package                           35                  1.6072927                     1_GWF-SFR-(210)-inflow
 Model                             36          1 -3.82374324E-06       *                     1_GWF-(2,1728)
 Package                           36                 0.30945963                     1_GWF-SFR-(210)-inflow
 Model                             37          1 -4.90467670E-07       *                      1_GWF-(3,118)
 Package                           37                  1.7172111                     1_GWF-SFR-(210)-inflow
 Model                             38          1 -3.74702745E-06       *                     1_GWF-(3,1727)
 Package                           38                 0.27861163                     1_GWF-SFR-(210)-inflow
 Model                             39          1 -6.19117458E-07       *                     1_GWF-(3,2786)
 Package                           39                  1.3280663                     1_GWF-SFR-(210)-inflow
 Model                             40          1 -2.43240541E-06       *                     1_GWF-(3,2786)
 Package                           40                 0.18875079                     1_GWF-SFR-(210)-inflow
 Model                             41          1 -8.50664634E-07       *                     1_GWF-(3,1727)
 Package                           41                 0.67018644                     1_GWF-SFR-(210)-inflow
 Model                             42          1 -1.34958771E-06       *                     1_GWF-(3,1727)
 Package                           42                 0.13122232                     1_GWF-SFR-(210)-inflow
 Model                             43          1 -3.71211911E-07       *                     1_GWF-(3,2786)
 Package                           43                 0.44707769                     1_GWF-SFR-(210)-inflow
 Model                             44          1 -8.25828124E-07       *                     1_GWF-(3,2786)
 Package                           44             5.38526753E-02                     1_GWF-SFR-(210)-inflow
 Model                             45          1 -2.40545887E-07       *                     1_GWF-(3,1727)
 Package                           45                 0.37027717                     1_GWF-SFR-(210)-inflow
 Model                             46          1 -8.00152549E-07       *                     1_GWF-(3,1727)
 Package                           46             5.70267334E-02                     1_GWF-SFR-(210)-inflow
 Model                             47          1 -1.54261670E-07       *                     1_GWF-(2,1590)
 Package                           47                 0.32747637                     1_GWF-SFR-(210)-inflow
 Model                             48          1 -7.06889494E-07       *                     1_GWF-(2,1728)
 Package                           48             5.53967973E-02                     1_GWF-SFR-(210)-inflow
 Model                             49          1 -1.30185100E-07       *                     1_GWF-(3,1727)
 Package                           49                 0.31078884                     1_GWF-SFR-(210)-inflow
 Model                             50          1 -7.97389930E-07       *                     1_GWF-(3,1727)
 Package                           50             5.41074010E-02                     1_GWF-SFR-(210)-inflow
 Model                             51          1 -1.06069393E-07       *                     1_GWF-(3,2784)
 Package                           51                 0.29947205                     1_GWF-SFR-(210)-inflow
 Model                             52          1 -7.12413396E-07       *                     1_GWF-(3,2786)
 Package                           52             5.01963330E-02                     1_GWF-SFR-(210)-inflow
 Model                             53          1 -1.39113411E-07       *                     1_GWF-(3,1727)
 Package                           53                 0.26013975                     1_GWF-SFR-(210)-inflow
 Model                             54          1 -5.88780836E-07       *                     1_GWF-(3,1727)
 Package                           54             4.54059201E-02                     1_GWF-SFR-(210)-inflow
 Model                             55          1 -1.80736606E-07       *                     1_GWF-(3,2786)
 Package                           55                 0.15057143                     1_GWF-SFR-(210)-inflow
 Model                             56          1 -2.61366125E-07       *                     1_GWF-(3,2786)
 Package                           56             2.81172236E-02                     1_GWF-SFR-(210)-inflow
 Model                             57          1 -8.64035314E-08       *                     1_GWF-(3,1727)
 Package                           57             9.30532293E-02                     1_GWF-SFR-(210)-inflow
 Model                             58          1 -2.29003348E-07       *                     1_GWF-(3,1727)
 Package                           58             2.14256085E-02                     1_GWF-SFR-(210)-inflow
 Model                             59          1 -4.98013151E-08       *                     1_GWF-(2,1590)
 Package                           59             8.34758117E-02                     1_GWF-SFR-(210)-inflow
 Model                             60          1 -1.89001298E-07       *                     1_GWF-(2,1735)
 Package                           60             1.84675557E-02                     1_GWF-SFR-(210)-inflow
 Model                             61          1 -4.00104625E-08       *                     1_GWF-(3,1727)
 Package                           61             8.04010810E-02                     1_GWF-SFR-(210)-inflow
 Model                             62          1 -2.12864336E-07       *                     1_GWF-(3,1727)
 Package                           62             1.66664441E-02                     1_GWF-SFR-(210)-inflow
 Model                             63          1 -2.88267756E-08       *                     1_GWF-(2,1590)
 Package                           63             8.10539589E-02                     1_GWF-SFR-(210)-inflow
 Model                             64          1 -2.14367589E-07       *                     1_GWF-(2,1728)
 Package                           64             1.48992687E-02                     1_GWF-SFR-(210)-inflow
 Model                             65          1 -3.24209282E-08       *                     1_GWF-(3,1727)
 Package                           65             8.28264402E-02                     1_GWF-SFR-(210)-inflow
 Model                             66          1 -2.14619803E-07       *                     1_GWF-(3,1727)
 Package                           66             1.39628835E-02                     1_GWF-SFR-(210)-inflow
 Model                             67          1 -4.70303974E-08       *                     1_GWF-(3,2786)
 Package                           67             5.88348997E-02                     1_GWF-SFR-(210)-inflow
 Model                             68          1 -1.14917384E-07       *                     1_GWF-(3,2786)
 Package                           68             9.30663429E-03       *             1_GWF-SFR-(210)-inflow
 ----------------------------------------------------------------------------------------------------------


 68 CALLS TO NUMERICAL SOLUTION IN TIME STEP 1 STRESS PERIOD 2
 68 TOTAL ITERATIONS

 OUTER ITERATION SUMMARY
 ----------------------------------------------------------------------------------------------------------
                                OUTER      INNER                    STEP   MAXIMUM CHANGE MODEL-(CELLID) OR
 OUTER ITERATION STEP       ITERATION  ITERATION  MAXIMUM CHANGE SUCCESS             MODEL-PACKAGE-(NUMBER)
 ----------------------------------------------------------------------------------------------------------
 Model                              1         12 -2.72908321E-02                             1_GWF-(1,2210)
 Model                              2          2 -2.08369791E-03       *                     1_GWF-(1,3315)
 Package                            2                  15868.149                     1_GWF-SFR-(210)-inflow
 Model                              3          1 -4.11425812E-04       *                       1_GWF-(1,66)
 Package                            3                  6679.4968                     1_GWF-SFR-(210)-inflow
 Model                              4          1 -2.18405831E-04       *                       1_GWF-(1,63)
 Package                            4                  2422.3062                     1_GWF-SFR-(210)-inflow
 Model                              5          1 -1.99673387E-04       *                      1_GWF-(2,134)
 Package                            5                  1152.8596                     1_GWF-SFR-(210)-inflow
 Model                              6          1 -1.84662296E-04       *                      1_GWF-(2,104)
 Package                            6                  708.38297                     1_GWF-SFR-(210)-inflow
 Model                              7          1 -1.83991162E-04       *                      1_GWF-(3,134)
 Package                            7                  515.22733                     1_GWF-SFR-(210)-inflow
 Model                              8          1 -1.76515419E-04       *                      1_GWF-(3,134)
 Package                            8                  396.60157                     1_GWF-SFR-(210)-inflow
 Model                              9          1 -1.67294064E-04       *                     1_GWF-(1,1727)
 Package                            9                  323.40275                     1_GWF-SFR-(210)-inflow
 Model                             10          1 -1.79689445E-04       *                     1_GWF-(1,1727)
 Package                           10                  267.32619                     1_GWF-SFR-(210)-inflow
 Model                             11          1 -1.86313106E-04       *                     1_GWF-(1,1726)
 Package                           11                  229.19925                     1_GWF-SFR-(210)-inflow
 Model                             12          1 -1.95741233E-04       *                     1_GWF-(1,1870)
 Package                           12                  196.48511                     1_GWF-SFR-(210)-inflow
 Model                             13          1 -1.96152297E-04       *                     1_GWF-(1,1870)
 Package                           13                  174.46294                     1_GWF-SFR-(210)-inflow
 Model                             14          1 -2.01318843E-04       *                     1_GWF-(1,1870)
 Package                           14                  152.34984                     1_GWF-SFR-(210)-inflow
 Model                             15          1 -1.91903420E-04       *                     1_GWF-(1,1870)
 Package                           15                  138.99248                     1_GWF-SFR-(210)-inflow
 Model                             16          1 -1.94465468E-04       *                     1_GWF-(1,1870)
 Package                           16                  121.29139                     1_GWF-SFR-(210)-inflow
 Model                             17          1 -1.73871994E-04       *                     1_GWF-(1,1870)
 Package                           17                  114.25606                     1_GWF-SFR-(210)-inflow
 Model                             18          1 -1.81081682E-04       *                     1_GWF-(1,1870)
 Package                           18                  96.770079                     1_GWF-SFR-(210)-inflow
 Model                             19          1 -1.44777091E-04       *                     1_GWF-(1,1870)
 Package                           19                  97.794435                     1_GWF-SFR-(210)-inflow
 Model                             20          1 -1.71056353E-04       *                     1_GWF-(1,1870)
 Package                           20                  73.797863                     1_GWF-SFR-(210)-inflow
 Model                             21          1 -9.97302209E-05       *                     1_GWF-(1,1870)
 Package                           21                  92.339646                     1_GWF-SFR-(210)-inflow
 Model                             22          1 -1.49287949E-04       *                     1_GWF-(1,1870)
 Package                           22                  43.517424                     1_GWF-SFR-(210)-inflow
 Model                             23          1 -4.87096929E-05       *                     1_GWF-(1,1870)
 Package                           23                  91.019347                     1_GWF-SFR-(210)-inflow
 Model                             24          1 -1.39755770E-04       *                     1_GWF-(1,1870)
 Package                           24                  10.108687                     1_GWF-SFR-(210)-inflow
 Model                             25          1 -3.39961702E-05       *                     1_GWF-(1,1870)
 Package                           25                  79.318453                     1_GWF-SFR-(210)-inflow
 Model                             26          1 -1.72996417E-04       *                     1_GWF-(1,1870)
 Package                           26                  7.7962100                     1_GWF-SFR-(210)-inflow
 Model                             27          1 -2.36734041E-05       *                     1_GWF-(1,1726)
 Package                           27                  85.343700                     1_GWF-SFR-(210)-inflow
 Model                             28          1 -2.00770444E-04       *                     1_GWF-(1,1870)
 Package                           28                  10.306890                     1_GWF-SFR-(221)-inflow
 Model                             29          1 -1.64312699E-05       *                     1_GWF-(1,1724)
 Package                           29                  88.922584                     1_GWF-SFR-(210)-inflow
 Model                             30          1 -1.57244057E-04       *                     1_GWF-(1,1726)
 Package                           30                  14.505707                     1_GWF-SFR-(221)-inflow
 Model                             31          1 -1.32618101E-05       *                     1_GWF-(1,1870)
 Package                           31                  66.223544                     1_GWF-SFR-(210)-inflow
 Model                             32          1 -1.34878022E-04       *                     1_GWF-(1,1726)
 Package                           32                  14.412598                     1_GWF-SFR-(210)-inflow
 Model                             33          1 -9.12383970E-06       *                     1_GWF-(1,1726)
 Package                           33                  56.817147                     1_GWF-SFR-(210)-inflow
 Model                             34          1 -1.17870160E-04       *                     1_GWF-(1,1726)
 Package                           34                  10.447828                     1_GWF-SFR-(210)-inflow
 Model                             35          1 -5.79823063E-06       *                     1_GWF-(1,1870)
 Package                           35                  50.375515                     1_GWF-SFR-(210)-inflow
 Model                             36          1 -7.49728479E-05       *                     1_GWF-(1,1726)
 Package                           36                  7.0645130                     1_GWF-SFR-(210)-inflow
 Model                             37          1 -4.31507993E-06       *                     1_GWF-(1,1729)
 Package                           37                  31.797578                     1_GWF-SFR-(210)-inflow
 Model                             38          1 -5.27228077E-05       *                     1_GWF-(1,1729)
 Package                           38                  4.9837955                     1_GWF-SFR-(210)-inflow
 Model                             39          1 -3.64107780E-06       *                      1_GWF-(3,118)
 Package                           39                  23.412565                     1_GWF-SFR-(210)-inflow
 Model                             40          1 -3.50587489E-05       *                     1_GWF-(2,1720)
 Package                           40                  3.1436168                     1_GWF-SFR-(210)-inflow
 Model                             41          1 -3.99729925E-06       *                      1_GWF-(3,383)
 Package                           41                  13.901705                     1_GWF-SFR-(210)-inflow
 Model                             42          1 -1.98465996E-05       *                     1_GWF-(3,1728)
 Package                           42                  2.4720099                     1_GWF-SFR-(210)-inflow
 Model                             43          1  5.31985185E-06       *                      1_GWF-(3,383)
 Package                           43                  11.186513                     1_GWF-SFR-(210)-inflow
 Model                             44          1 -1.36674451E-05       *                     1_GWF-(2,1721)
 Package                           44                  1.6846821                     1_GWF-SFR-(221)-inflow
 Model                             45          1 -2.69819262E-06       *                     1_GWF-(2,2554)
 Package                           45                  3.6382491                     1_GWF-SFR-(210)-inflow
 Model                             46          1 -1.08652142E-05       *                     1_GWF-(1,1729)
 Package                           46                  2.1553393                     1_GWF-SFR-(210)-inflow
 Model                             47          1 -1.62404265E-06       *                     1_GWF-(2,1869)
 Package                           47                  6.8877666                     1_GWF-SFR-(210)-inflow
 Model                             48          1 -1.67906597E-05       *                     1_GWF-(2,1721)
 Package                           48                 0.17083805                     1_GWF-SFR-(210)-inflow
 Model                             49          1 -1.40186387E-06       *                       1_GWF-(3,53)
 Package                           49                  4.5749558                     1_GWF-SFR-(210)-inflow
 Model                             50          1 -4.28583834E-06       *                     1_GWF-(1,2784)
 Package                           50                  1.4490797                     1_GWF-SFR-(210)-inflow
 Model                             51          1 -1.73295854E-06       *                     1_GWF-(3,2813)
 Package                           51                  3.9532044                     1_GWF-SFR-(210)-inflow
 Model                             52          1 -7.50148229E-06       *                     1_GWF-(2,1719)
 Package                           52                 0.41489535                     1_GWF-SFR-(221)-inflow
 Model                             53          1 -8.48882962E-07       *                     1_GWF-(1,2784)
 Package                           53                  1.8187560                     1_GWF-SFR-(210)-inflow
 Model                             54          1 -3.26119024E-06       *                     1_GWF-(3,1738)
 Package                           54                  1.2893939                     1_GWF-SFR-(210)-inflow
 Model                             55          1 -1.09338694E-06       *                     1_GWF-(2,1721)
 Package                           55                  1.9563058                     1_GWF-SFR-(210)-inflow
 Model                             56          1 -4.05290888E-06       *                     1_GWF-(2,1723)
 Package                           56                 0.39191008                     1_GWF-SFR-(210)-inflow
 Model                             57          1 -5.30772354E-07       *                      1_GWF-(3,118)
 Package                           57                  1.6569086                     1_GWF-SFR-(210)-inflow
 Model                             58          1 -4.32434825E-06       *                     1_GWF-(1,1729)
 Package                           58                 0.31166380                     1_GWF-SFR-(210)-inflow
 Model                             59          1 -5.11954340E-07       *                      1_GWF-(3,118)
 Package                           59                  2.0697311                     1_GWF-SFR-(210)-inflow
 Model                             60          1 -5.17468214E-06       *                     1_GWF-(2,1723)
 Package                           60                 0.20529335                     1_GWF-SFR-(210)-inflow
 Model                             61          1 -4.47926340E-07       *                      1_GWF-(3,118)
 Package                           61                  1.8457805                     1_GWF-SFR-(210)-inflow
 Model                             62          1 -1.57067257E-06       *                     1_GWF-(1,2783)
 Package                           62                 0.32072163                     1_GWF-SFR-(210)-inflow
 Model                             63          1 -4.25390226E-07       *                     1_GWF-(3,2810)
 Package                           63                 0.99875059                     1_GWF-SFR-(210)-inflow
 Model                             64          1 -1.78412870E-06       *                     1_GWF-(2,1586)
 Package                           64                 0.14009081                     1_GWF-SFR-(210)-inflow
 Model                             65          1 -3.25085125E-07       *                     1_GWF-(1,2783)
 Package                           65                 0.31477568                     1_GWF-SFR-(210)-inflow
 Model                             66          1 -6.16316782E-07       *                     1_GWF-(1,2024)
 Package                           66                 0.29701294                     1_GWF-SFR-(210)-inflow
 Model                             67          1 -2.82484535E-07       *                     1_GWF-(2,1723)
 Package                           67                 0.47182625                     1_GWF-SFR-(210)-inflow
 Model                             68          1 -7.73960096E-07       *                     1_GWF-(2,1723)
 Package                           68             6.24427635E-02                     1_GWF-SFR-(210)-inflow
 Model                             69          1 -1.48503091E-07       *                     1_GWF-(1,1870)
 Package                           69                 0.36259417                     1_GWF-SFR-(210)-inflow
 Model                             70          1 -9.54134777E-07       *                     1_GWF-(1,1870)
 Package                           70             4.54768053E-02                     1_GWF-SFR-(210)-inflow
 Model                             71          1 -1.30592213E-07       *                      1_GWF-(3,118)
 Package                           71                 0.46102243                     1_GWF-SFR-(210)-inflow
 Model                             72          1 -1.24363294E-06       *                     1_GWF-(2,1723)
 Package                           72             3.96982228E-02                     1_GWF-SFR-(210)-inflow
 Model                             73          1 -1.21528672E-07       *                      1_GWF-(3,118)
 Package                           73                 0.49665922                     1_GWF-SFR-(210)-inflow
 Model                             74          1 -6.59035237E-07       *                     1_GWF-(1,1880)
 Package                           74             7.07097370E-02                     1_GWF-SFR-(210)-inflow
 Model                             75          1 -7.05776699E-08       *                     1_GWF-(1,2644)
 Package                           75                 0.32255818                     1_GWF-SFR-(210)-inflow
 Model                             76          1 -5.38135623E-07       *                     1_GWF-(2,1586)
 Package                           76             4.74624322E-02                     1_GWF-SFR-(210)-inflow
 Model                             77          1 -1.00700788E-07       *                     1_GWF-(1,2785)
 Package                           77                 0.12730960                     1_GWF-SFR-(210)-inflow
 Model                             78          1 -1.63198706E-07       *                     1_GWF-(1,2783)
 Package                           78             5.66950544E-02                     1_GWF-SFR-(210)-inflow
 Model                             79          1 -6.02359762E-08       *                     1_GWF-(2,1587)
 Package                           79                 0.13755043                     1_GWF-SFR-(210)-inflow
 Model                             80          1 -2.76310402E-07       *                     1_GWF-(2,1723)
 Package                           80             6.28414490E-03       *             1_GWF-SFR-(221)-inflow
 ----------------------------------------------------------------------------------------------------------


 80 CALLS TO NUMERICAL SOLUTION IN TIME STEP 2 STRESS PERIOD 2
 92 TOTAL ITERATIONS

 OUTER ITERATION SUMMARY
 ----------------------------------------------------------------------------------------------------------
                                OUTER      INNER                    STEP   MAXIMUM CHANGE MODEL-(CELLID) OR
 OUTER ITERATION STEP       ITERATION  ITERATION  MAXIMUM CHANGE SUCCESS             MODEL-PACKAGE-(NUMBER)
 ----------------------------------------------------------------------------------------------------------
 Model                              1         11 -1.79311341E-02                             1_GWF-(1,2210)
 Model                              2          2 -1.82591963E-03       *                      1_GWF-(1,664)
 Package                            2                  9866.8430                     1_GWF-SFR-(210)-inflow
 Model                              3          1 -2.57413720E-04       *                       1_GWF-(1,66)
 Package                            3                  4177.8949                     1_GWF-SFR-(210)-inflow
 Model                              4          1 -1.37420500E-04       *                       1_GWF-(1,63)
 Package                            4                  1527.5521                     1_GWF-SFR-(210)-inflow
 Model                              5          1 -1.25383903E-04       *                      1_GWF-(2,134)
 Package                            5                  726.52247                     1_GWF-SFR-(210)-inflow
 Model                              6          1 -1.17150227E-04       *                      1_GWF-(2,104)
 Package                            6                  443.84270                     1_GWF-SFR-(210)-inflow
 Model                              7          1 -1.20071605E-04       *                     1_GWF-(1,1724)
 Package                            7                  319.86473                     1_GWF-SFR-(210)-inflow
 Model                              8          1 -1.35897855E-04       *                     1_GWF-(1,1724)
 Package                            8                  243.29369                     1_GWF-SFR-(210)-inflow
 Model                              9          1 -1.46304959E-04       *                     1_GWF-(1,1724)
 Package                            9                  197.07974                     1_GWF-SFR-(210)-inflow
 Model                             10          1 -1.58351542E-04       *                     1_GWF-(1,1724)
 Package                           10                  161.20777                     1_GWF-SFR-(210)-inflow
 Model                             11          1 -1.61427013E-04       *                     1_GWF-(1,1724)
 Package                           11                  138.57737                     1_GWF-SFR-(210)-inflow
 Model                             12          1 -1.68739282E-04       *                     1_GWF-(1,1870)
 Package                           12                  118.08577                     1_GWF-SFR-(210)-inflow
 Model                             13          1 -1.60768723E-04       *                     1_GWF-(1,1870)
 Package                           13                  106.84225                     1_GWF-SFR-(210)-inflow
 Model                             14          1 -1.64105420E-04       *                     1_GWF-(1,1870)
 Package                           14                  92.285770                     1_GWF-SFR-(210)-inflow
 Model                             15          1 -1.43500482E-04       *                     1_GWF-(1,1870)
 Package                           15                  87.622229                     1_GWF-SFR-(210)-inflow
 Model                             16          1 -1.51755104E-04       *                     1_GWF-(1,1870)
 Package                           16                  73.068631                     1_GWF-SFR-(210)-inflow
 Model                             17          1 -1.14444063E-04       *                     1_GWF-(1,1870)
 Package                           17                  76.129897                     1_GWF-SFR-(210)-inflow
 Model                             18          1 -1.42861768E-04       *                     1_GWF-(1,1870)
 Package                           18                  53.797927                     1_GWF-SFR-(210)-inflow
 Model                             19          1 -6.79355023E-05       *                     1_GWF-(1,1870)
 Package                           19                  74.291588                     1_GWF-SFR-(210)-inflow
 Model                             20          1 -1.18900022E-04       *                     1_GWF-(1,1870)
 Package                           20                  25.949090                     1_GWF-SFR-(210)-inflow
 Model                             21          1 -3.48074535E-05       *                     1_GWF-(1,1870)
 Package                           21                  69.545033                     1_GWF-SFR-(210)-inflow
 Model                             22          1 -1.43400839E-04       *                     1_GWF-(1,1870)
 Package                           22                  7.7798653                     1_GWF-SFR-(210)-inflow
 Model                             23          1 -2.30222751E-05       *                     1_GWF-(1,1870)
 Package                           23                  72.600093                     1_GWF-SFR-(210)-inflow
 Model                             24          1 -1.85763305E-04       *                     1_GWF-(1,1870)
 Package                           24                  6.9384902                     1_GWF-SFR-(210)-inflow
 Model                             25          1 -1.53350605E-05       *                     1_GWF-(1,1727)
 Package                           25                  82.611155                     1_GWF-SFR-(210)-inflow
 Model                             26          1 -1.45713364E-04       *                     1_GWF-(1,1870)
 Package                           26                  10.590805                     1_GWF-SFR-(221)-inflow
 Model                             27          1 -1.26809819E-05       *                     1_GWF-(1,1870)
 Package                           27                  62.155682                     1_GWF-SFR-(210)-inflow
 Model                             28          1 -1.24766334E-04       *                     1_GWF-(1,1726)
 Package                           28                  12.174629                     1_GWF-SFR-(210)-inflow
 Model                             29          1 -8.83144182E-06       *                     1_GWF-(1,1870)
 Package                           29                  51.949282                     1_GWF-SFR-(210)-inflow
 Model                             30          1 -1.07879780E-04       *                     1_GWF-(1,1726)
 Package                           30                  10.066117                     1_GWF-SFR-(210)-inflow
 Model                             31          1 -5.80827947E-06       *                     1_GWF-(1,1724)
 Package                           31                  44.196189                     1_GWF-SFR-(210)-inflow
 Model                             32          1 -7.14817676E-05       *                     1_GWF-(1,1726)
 Package                           32                  6.8920802                     1_GWF-SFR-(210)-inflow
 Model                             33          1 -4.15751521E-06       *                     1_GWF-(1,1869)
 Package                           33                  33.116745                     1_GWF-SFR-(210)-inflow
 Model                             34          1 -5.62078854E-05       *                     1_GWF-(1,1870)
 Package                           34                  4.1735104                     1_GWF-SFR-(210)-inflow
 Model                             35          1 -4.88902387E-06       *                      1_GWF-(2,301)
 Package                           35                  17.278342                     1_GWF-SFR-(210)-inflow
 Model                             36          1 -1.30572922E-05       *                     1_GWF-(1,1727)
 Package                           36                  4.9687373                     1_GWF-SFR-(210)-inflow
 Model                             37          1 -3.74145651E-06       *                     1_GWF-(1,1869)
 Package                           37                  11.260250                     1_GWF-SFR-(210)-inflow
 Model                             38          1 -3.99297854E-05       *                     1_GWF-(1,1870)
 Package                           38                  1.4215444                     1_GWF-SFR-(210)-inflow
 Model                             39          1 -2.27072334E-06       *                      1_GWF-(2,302)
 Package                           39                  11.583547                     1_GWF-SFR-(210)-inflow
 Model                             40          1 -5.00270443E-06       *                     1_GWF-(3,1727)
 Package                           40                  3.6846385                     1_GWF-SFR-(210)-inflow
 Model                             41          1 -3.37070952E-06       *                     1_GWF-(1,1870)
 Package                           41                  5.2057232                     1_GWF-SFR-(210)-inflow
 Model                             42          1 -1.45218385E-05       *                     1_GWF-(1,1726)
 Package                           42                  1.5158271                     1_GWF-SFR-(210)-inflow
 Model                             43          1 -1.78084537E-06       *                     1_GWF-(1,1729)
 Package                           43                  6.2086442                     1_GWF-SFR-(210)-inflow
 Model                             44          1 -9.18180760E-06       *                     1_GWF-(1,1726)
 Package                           44                  1.1719787                     1_GWF-SFR-(210)-inflow
 Model                             45          1 -1.55137022E-06       *                     1_GWF-(2,1720)
 Package                           45                  4.2196762                     1_GWF-SFR-(210)-inflow
 Model                             46          1 -6.33838317E-06       *                     1_GWF-(1,1726)
 Package                           46                 0.65757870                     1_GWF-SFR-(210)-inflow
 Model                             47          1 -1.08445479E-06       *                     1_GWF-(1,1729)
 Package                           47                  3.1473527                     1_GWF-SFR-(210)-inflow
 Model                             48          1 -6.84453690E-06       *                     1_GWF-(1,1726)
 Package                           48                 0.35200934                     1_GWF-SFR-(210)-inflow
 Model                             49          1 -7.59827657E-07       *                      1_GWF-(3,118)
 Package                           49                  2.9990412                     1_GWF-SFR-(210)-inflow
 Model                             50          1 -7.05991877E-06       *                     1_GWF-(1,1726)
 Package                           50                 0.46786862                     1_GWF-SFR-(210)-inflow
 Model                             51          1 -7.52291214E-07       *                      1_GWF-(3,118)
 Package                           51                  2.9727421                     1_GWF-SFR-(210)-inflow
 Model                             52          1 -6.24512845E-06       *                     1_GWF-(1,1729)
 Package                           52                 0.48786893                     1_GWF-SFR-(210)-inflow
 Model                             53          1  5.65321756E-07       *                       1_GWF-(3,86)
 Package                           53                  2.5134359                     1_GWF-SFR-(210)-inflow
 Model                             54          1 -3.94922364E-06       *                     1_GWF-(3,1721)
 Package                           54                 0.45149868                     1_GWF-SFR-(210)-inflow
 Model                             55          1 -4.70100161E-07       *                      1_GWF-(3,118)
 Package                           55                  1.7894380                     1_GWF-SFR-(210)-inflow
 Model                             56          1 -3.20667499E-06       *                     1_GWF-(3,1739)
 Package                           56                 0.18873523                     1_GWF-SFR-(210)-inflow
 Model                             57          1 -7.29383004E-07       *                      1_GWF-(3,114)
 Package                           57                  1.0883964                     1_GWF-SFR-(210)-inflow
 Model                             58          1 -7.94779169E-07       *                     1_GWF-(3,1715)
 Package                           58                 0.36819365                     1_GWF-SFR-(210)-inflow
 Model                             59          1 -4.26692424E-07       *                     1_GWF-(3,1742)
 Package                           59                 0.45852138                     1_GWF-SFR-(210)-inflow
 Model                             60          1 -9.83555736E-07       *                     1_GWF-(2,1720)
 Package                           60             5.93811245E-02                     1_GWF-SFR-(210)-inflow
 Model                             61          1 -1.86343215E-07       *                     1_GWF-(3,1738)
 Package                           61                 0.56727471                     1_GWF-SFR-(210)-inflow
 Model                             62          1 -1.55773353E-06       *                     1_GWF-(1,1729)
 Package                           62             3.32867770E-02                     1_GWF-SFR-(210)-inflow
 Model                             63          1  1.39554857E-07       *                       1_GWF-(3,86)
 Package                           63                 0.58432866                     1_GWF-SFR-(210)-inflow
 Model                             64          1 -9.49071278E-07       *                     1_GWF-(2,1720)
 Package                           64                 0.11765765                     1_GWF-SFR-(210)-inflow
 Model                             65          1  1.47367558E-07       *                      1_GWF-(3,114)
 Package                           65                 0.50430347                     1_GWF-SFR-(210)-inflow
 Model                             66          1 -1.14932269E-06       *                     1_GWF-(3,1735)
 Package                           66             4.33876015E-02                     1_GWF-SFR-(210)-inflow
 Model                             67          1 -2.85981713E-07       *                      1_GWF-(3,114)
 Package                           67                 0.31021378                     1_GWF-SFR-(210)-inflow
 Model                             68          1 -2.30383989E-07       *                      1_GWF-(3,114)
 Package                           68                 0.14030998                     1_GWF-SFR-(210)-inflow
 Model                             69          1 -1.53155554E-07       *                     1_GWF-(3,1739)
 Package                           69                 0.16691806                     1_GWF-SFR-(210)-inflow
 Model                             70          1 -3.19662490E-07       *                     1_GWF-(2,1724)
 Package                           70             4.25641483E-02                     1_GWF-SFR-(210)-inflow
 Model                             71          1 -6.83718326E-08       *                     1_GWF-(3,1740)
 Package                           71                 0.16288828                     1_GWF-SFR-(210)-inflow
 Model                             72          1 -3.37974171E-07       *                     1_GWF-(1,1729)
 Package                           72             2.48338265E-02                     1_GWF-SFR-(210)-inflow
 Model                             73          1 -5.16294278E-08       *                     1_GWF-(3,1714)
 Package                           73                 0.13267061                     1_GWF-SFR-(210)-inflow
 Model                             74          1 -2.57007741E-07       *                     1_GWF-(2,1725)
 Package                           74             3.29443385E-02                     1_GWF-SFR-(210)-inflow
 Model                             75          1 -4.09670520E-08       *                     1_GWF-(3,1738)
 Package                           75                 0.12876924                     1_GWF-SFR-(210)-inflow
 Model                             76          1 -3.12484161E-07       *                     1_GWF-(1,1729)
 Package                           76             1.70554917E-02                     1_GWF-SFR-(210)-inflow
 Model                             77          1  3.90024582E-08       *                       1_GWF-(3,86)
 Package                           77                 0.11863852                     1_GWF-SFR-(210)-inflow
 Model                             78          1 -2.60230138E-07       *                     1_GWF-(3,1721)
 Package                           78             2.59569549E-02                     1_GWF-SFR-(210)-inflow
 Model                             79          1  3.51075471E-08       *                       1_GWF-(3,84)
 Package                           79                 0.12726302                     1_GWF-SFR-(210)-inflow
 Model                             80          1 -2.07129602E-07       *                     1_GWF-(3,1739)
 Package                           80             1.25001581E-02                     1_GWF-SFR-(210)-inflow
 Model                             81          1 -9.31031821E-08       *                      1_GWF-(3,114)
 Package                           81             5.01675421E-02                     1_GWF-SFR-(210)-inflow
 Model                             82          1 -5.22003063E-08       *                     1_GWF-(3,1868)
 Package                           82             3.09825020E-02                     1_GWF-SFR-(210)-inflow
 Model                             83          1 -2.44455123E-08       *                     1_GWF-(3,1739)
 Package                           83             3.99506759E-02                     1_GWF-SFR-(210)-inflow
 Model                             84          1 -8.29425915E-08       *                     1_GWF-(1,1726)
 Package                           84             4.23381967E-03       *             1_GWF-SFR-(210)-inflow
 ----------------------------------------------------------------------------------------------------------


 84 CALLS TO NUMERICAL SOLUTION IN TIME STEP 3 STRESS PERIOD 2
 95 TOTAL ITERATIONS

 OUTER ITERATION SUMMARY
 ----------------------------------------------------------------------------------------------------------
                                OUTER      INNER                    STEP   MAXIMUM CHANGE MODEL-(CELLID) OR
 OUTER ITERATION STEP       ITERATION  ITERATION  MAXIMUM CHANGE SUCCESS             MODEL-PACKAGE-(NUMBER)
 ----------------------------------------------------------------------------------------------------------
 Model                              1         11  1.68910844E-02                              1_GWF-(1,744)
 Model                              2          2 -1.78811759E-03       *                      1_GWF-(1,428)
 Package                            2                 -10404.275                     1_GWF-SFR-(210)-inflow
 Model                              3          1  2.72542184E-04       *                       1_GWF-(1,66)
 Package                            3                 -4365.9704                     1_GWF-SFR-(210)-inflow
 Model                              4          1  1.44121715E-04       *                       1_GWF-(1,63)
 Package                            4                 -1584.8213                     1_GWF-SFR-(210)-inflow
 Model                              5          1  1.31978847E-04       *                      1_GWF-(2,134)
 Package                            5                 -747.05893                     1_GWF-SFR-(210)-inflow
 Model                              6          1  1.23426854E-04       *                      1_GWF-(2,104)
 Package                            6                 -451.43875                     1_GWF-SFR-(210)-inflow
 Model                              7          1  1.24955844E-04       *                      1_GWF-(3,134)
 Package                            7                 -322.53218                     1_GWF-SFR-(210)-inflow
 Model                              8          1  1.34803543E-04       *                     1_GWF-(1,1727)
 Package                            8                 -243.10735                     1_GWF-SFR-(210)-inflow
 Model                              9          1  1.46528570E-04       *                     1_GWF-(1,1727)
 Package                            9                 -195.29340                     1_GWF-SFR-(210)-inflow
 Model                             10          1  1.60373425E-04       *                     1_GWF-(1,1724)
 Package                           10                 -158.43343                     1_GWF-SFR-(210)-inflow
 Model                             11          1  1.64809889E-04       *                     1_GWF-(1,1726)
 Package                           11                 -135.51902                     1_GWF-SFR-(210)-inflow
 Model                             12          1  1.72898636E-04       *                     1_GWF-(1,1870)
 Package                           12                 -114.98741                     1_GWF-SFR-(210)-inflow
 Model                             13          1  1.63857101E-04       *                     1_GWF-(1,1870)
 Package                           13                 -104.15347                     1_GWF-SFR-(210)-inflow
 Model                             14          1  1.66522218E-04       *                     1_GWF-(1,1870)
 Package                           14                 -89.746471                     1_GWF-SFR-(210)-inflow
 Model                             15          1  1.43366375E-04       *                     1_GWF-(1,1870)
 Package                           15                 -85.607515                     1_GWF-SFR-(210)-inflow
 Model                             16          1  1.51448079E-04       *                     1_GWF-(1,1870)
 Package                           16                 -70.726910                     1_GWF-SFR-(210)-inflow
 Model                             17          1  1.10787056E-04       *                     1_GWF-(1,1870)
 Package                           17                 -74.824865                     1_GWF-SFR-(210)-inflow
 Model                             18          1  1.37993802E-04       *                     1_GWF-(1,1870)
 Package                           18                 -50.611335                     1_GWF-SFR-(210)-inflow
 Model                             19          1  6.03632413E-05       *                     1_GWF-(1,1870)
 Package                           19                 -72.948224                     1_GWF-SFR-(210)-inflow
 Model                             20          1  1.10010477E-04       *                     1_GWF-(1,1870)
 Package                           20                 -21.277614                     1_GWF-SFR-(210)-inflow
 Model                             21          1  3.40913085E-05       *                     1_GWF-(1,1870)
 Package                           21                 -64.385506                     1_GWF-SFR-(210)-inflow
 Model                             22          1  1.36683114E-04       *                     1_GWF-(1,1870)
 Package                           22                 -8.1368940                     1_GWF-SFR-(210)-inflow
 Model                             23          1  2.28218371E-05       *                     1_GWF-(1,1721)
 Package                           23                 -69.125662                     1_GWF-SFR-(210)-inflow
 Model                             24          1  1.77815240E-04       *                     1_GWF-(1,1870)
 Package                           24                 -7.4455807                     1_GWF-SFR-(210)-inflow
 Model                             25          1  1.50907355E-05       *                     1_GWF-(1,1727)
 Package                           25                 -79.589794                     1_GWF-SFR-(210)-inflow
 Model                             26          1  1.48860783E-04       *                     1_GWF-(1,1870)
 Package                           26                 -10.653132                     1_GWF-SFR-(221)-inflow
 Model                             27          1  1.19201850E-05       *                     1_GWF-(1,1726)
 Package                           27                 -63.846509                     1_GWF-SFR-(210)-inflow
 Model                             28          1  1.19076704E-04       *                     1_GWF-(1,1726)
 Package                           28                 -12.223255                     1_GWF-SFR-(210)-inflow
 Model                             29          1  8.69424352E-06       *                     1_GWF-(1,1729)
 Package                           29                 -50.361917                     1_GWF-SFR-(210)-inflow
 Model                             30          1  1.06540272E-04       *                     1_GWF-(1,1726)
 Package                           30                 -9.7205126                     1_GWF-SFR-(210)-inflow
 Model                             31          1  5.56229864E-06       *                     1_GWF-(1,1724)
 Package                           31                 -44.836942                     1_GWF-SFR-(210)-inflow
 Model                             32          1  7.15890239E-05       *                     1_GWF-(1,1726)
 Package                           32                 -6.6567528                     1_GWF-SFR-(210)-inflow
 Model                             33          1  3.95610158E-06       *                     1_GWF-(1,1870)
 Package                           33                 -32.585796                     1_GWF-SFR-(210)-inflow
 Model                             34          1  5.06877010E-05       *                     1_GWF-(1,1870)
 Package                           34                 -4.3139592                     1_GWF-SFR-(210)-inflow
 Model                             35          1  3.64384869E-06       *                      1_GWF-(3,113)
 Package                           35                 -17.497630                     1_GWF-SFR-(210)-inflow
 Model                             36          1  1.79066963E-05       *                     1_GWF-(1,1724)
 Package                           36                 -4.1037106                     1_GWF-SFR-(210)-inflow
 Model                             37          1  3.13607109E-06       *                     1_GWF-(1,1871)
 Package                           37                 -12.999933                     1_GWF-SFR-(210)-inflow
 Model                             38          1  3.52565356E-05       *                     1_GWF-(1,1870)
 Package                           38                 -1.1339277                     1_GWF-SFR-(210)-inflow
 Model                             39          1 -4.97431415E-06       *                      1_GWF-(3,623)
 Package                           39                 -7.1221267                     1_GWF-SFR-(210)-inflow
 Model                             40          1  3.40328097E-06       *                     1_GWF-(3,1727)
 Package                           40                 -5.2098342                     1_GWF-SFR-(210)-inflow
 Model                             41          1  4.23846441E-06       *                     1_GWF-(1,1870)
 Package                           41                 -4.5402366                     1_GWF-SFR-(210)-inflow
 Model                             42          1  8.58317418E-06       *                     1_GWF-(1,1726)
 Package                           42                 -2.2725882                     1_GWF-SFR-(210)-inflow
 Model                             43          1  3.32943785E-06       *                     1_GWF-(1,1726)
 Package                           43                 -4.3117139                     1_GWF-SFR-(210)-inflow
 Model                             44          1  5.69584677E-06       *                     1_GWF-(1,1726)
 Package                           44                 -1.1417158                     1_GWF-SFR-(210)-inflow
 Model                             45          1  1.77223612E-06       *                     1_GWF-(1,1726)
 Package                           45                 -3.3348456                     1_GWF-SFR-(210)-inflow
 Model                             46          1  6.83679050E-06       *                     1_GWF-(1,1726)
 Package                           46                -0.28224546                     1_GWF-SFR-(210)-inflow
 Model                             47          1  1.22139389E-06       *                     1_GWF-(1,1870)
 Package                           47                 -3.4968372                     1_GWF-SFR-(210)-inflow
 Model                             48          1  8.26088231E-06       *                     1_GWF-(1,1726)
 Package                           48                -0.32725990                     1_GWF-SFR-(221)-inflow
 Model                             49          1  9.46823519E-07       *                      1_GWF-(3,118)
 Package                           49                 -3.7634018                     1_GWF-SFR-(210)-inflow
 Model                             50          1  9.29118403E-06       *                     1_GWF-(1,1726)
 Package                           50                -0.46937026                     1_GWF-SFR-(210)-inflow
 Model                             51          1  8.55825078E-07       *                      1_GWF-(3,118)
 Package                           51                 -3.7824182                     1_GWF-SFR-(210)-inflow
 Model                             52          1  6.02927204E-06       *                     1_GWF-(1,1726)
 Package                           52                -0.69056873                     1_GWF-SFR-(210)-inflow
 Model                             53          1  5.60487479E-07       *                      1_GWF-(3,118)
 Package                           53                 -2.5122051                     1_GWF-SFR-(210)-inflow
 Model                             54          1  5.34561690E-06       *                     1_GWF-(1,1726)
 Package                           54                -0.44641998                     1_GWF-SFR-(210)-inflow
 Model                             55          1  4.95109731E-07       *                      1_GWF-(3,118)
 Package                           55                 -2.3534018                     1_GWF-SFR-(210)-inflow
 Model                             56          1  4.49248628E-06       *                     1_GWF-(2,1720)
 Package                           56                -0.23956487                     1_GWF-SFR-(210)-inflow
 Model                             57          1  4.13383447E-07       *                       1_GWF-(3,53)
 Package                           57                 -1.9405559                     1_GWF-SFR-(210)-inflow
 Model                             58          1  9.80751309E-07       *                     1_GWF-(3,1738)
 Package                           58                -0.23681168                     1_GWF-SFR-(210)-inflow
 Model                             59          1  6.07589214E-07       *                      1_GWF-(3,114)
 Package                           59                -0.32789734                     1_GWF-SFR-(210)-inflow
 Model                             60          1  9.35139042E-07       *                     1_GWF-(3,1870)
 Package                           60                -0.20817031                     1_GWF-SFR-(210)-inflow
 Model                             61          1  2.10319001E-07       *                      1_GWF-(3,113)
[...]
 Package                           80             2.02437076E-02                     1_GWF-SFR-(210)-inflow
 Model                             81          1  4.26136353E-08       *                      1_GWF-(3,963)
 Package                           81                 0.10869125                     1_GWF-SFR-(210)-inflow
 Model                             82          1 -1.04563327E-07       *                     1_GWF-(2,1590)
 Package                           82             2.47667062E-02                     1_GWF-SFR-(210)-inflow
 Model                             83          1 -3.24195071E-08       *                     1_GWF-(1,1322)
 Package                           83             5.71063455E-02                     1_GWF-SFR-(210)-inflow
 Model                             84          1 -1.30866880E-07       *                     1_GWF-(3,1720)
 Package                           84             7.24320095E-03       *             1_GWF-SFR-(210)-inflow
 ----------------------------------------------------------------------------------------------------------


 84 CALLS TO NUMERICAL SOLUTION IN TIME STEP 47 STRESS PERIOD 2
 96 TOTAL ITERATIONS

 OUTER ITERATION SUMMARY
 ----------------------------------------------------------------------------------------------------------
                                OUTER      INNER                    STEP   MAXIMUM CHANGE MODEL-(CELLID) OR
 OUTER ITERATION STEP       ITERATION  ITERATION  MAXIMUM CHANGE SUCCESS             MODEL-PACKAGE-(NUMBER)
 ----------------------------------------------------------------------------------------------------------
 Model                              1         12  2.20758140E-02                              1_GWF-(1,744)
 Model                              2          2 -1.82837626E-03       *                     1_GWF-(1,3524)
 Package                            2                 -13468.940                     1_GWF-SFR-(210)-inflow
 Model                              3          1  3.51780332E-04       *                       1_GWF-(1,66)
 Package                            3                 -5670.4295                     1_GWF-SFR-(210)-inflow
 Model                              4          1  1.85903376E-04       *                       1_GWF-(1,63)
 Package                            4                 -2055.5564                     1_GWF-SFR-(210)-inflow
 Model                              5          1  1.70516011E-04       *                      1_GWF-(2,134)
 Package                            5                 -977.28636                     1_GWF-SFR-(210)-inflow
 Model                              6          1  1.57385116E-04       *                      1_GWF-(2,104)
 Package                            6                 -600.40342                     1_GWF-SFR-(210)-inflow
 Model                              7          1  1.56956974E-04       *                      1_GWF-(3,134)
 Package                            7                 -436.63119                     1_GWF-SFR-(210)-inflow
 Model                              8          1  1.50239524E-04       *                      1_GWF-(3,134)
 Package                            8                 -335.91957                     1_GWF-SFR-(210)-inflow
 Model                              9          1  1.36455699E-04       *                     1_GWF-(1,1728)
 Package                            9                 -273.63617                     1_GWF-SFR-(210)-inflow
 Model                             10          1  1.46435025E-04       *                     1_GWF-(1,1727)
 Package                           10                 -225.94251                     1_GWF-SFR-(210)-inflow
 Model                             11          1  1.51930877E-04       *                     1_GWF-(1,1729)
 Package                           11                 -193.44824                     1_GWF-SFR-(210)-inflow
 Model                             12          1  1.59616741E-04       *                     1_GWF-(1,1870)
 Package                           12                 -165.68722                     1_GWF-SFR-(210)-inflow
 Model                             13          1  1.60358150E-04       *                     1_GWF-(1,1870)
 Package                           13                 -146.89844                     1_GWF-SFR-(210)-inflow
 Model                             14          1  1.64768503E-04       *                     1_GWF-(1,1870)
 Package                           14                 -128.23235                     1_GWF-SFR-(210)-inflow
 Model                             15          1  1.57630111E-04       *                     1_GWF-(1,1870)
 Package                           15                 -116.78386                     1_GWF-SFR-(210)-inflow
 Model                             16          1  1.59669740E-04       *                     1_GWF-(1,1870)
 Package                           16                 -101.97720                     1_GWF-SFR-(210)-inflow
 Model                             17          1  1.43478049E-04       *                     1_GWF-(1,1870)
 Package                           17                 -95.767820                     1_GWF-SFR-(210)-inflow
 Model                             18          1  1.48678998E-04       *                     1_GWF-(1,1870)
 Package                           18                 -81.371462                     1_GWF-SFR-(210)-inflow
 Model                             19          1  1.20125379E-04       *                     1_GWF-(1,1870)
 Package                           19                 -81.596855                     1_GWF-SFR-(210)-inflow
 Model                             20          1  1.39263167E-04       *                     1_GWF-(1,1870)
 Package                           20                 -62.290873                     1_GWF-SFR-(210)-inflow
 Model                             21          1  8.33262147E-05       *                     1_GWF-(1,1870)
 Package                           21                 -76.004243                     1_GWF-SFR-(210)-inflow
 Model                             22          1  1.16985093E-04       *                     1_GWF-(1,1870)
 Package                           22                 -37.303710                     1_GWF-SFR-(210)-inflow
 Model                             23          1  6.86339988E-05       *                     1_GWF-(3,3688)
 Package                           23                 -71.527784                     1_GWF-SFR-(210)-inflow
 Model                             24          1  1.07462340E-04       *                     1_GWF-(1,1870)
 Package                           24                 -10.354290                     1_GWF-SFR-(210)-inflow
 Model                             25          1  6.42656763E-05       *                     1_GWF-(3,3688)
 Package                           25                 -61.480896                     1_GWF-SFR-(210)-inflow
 Model                             26          1  1.29110098E-04       *                     1_GWF-(1,1870)
 Package                           26                 -8.0246057                     1_GWF-SFR-(210)-inflow
 Model                             27          1  5.48925838E-05       *                     1_GWF-(3,3688)
 Package                           27                 -65.057905                     1_GWF-SFR-(210)-inflow
 Model                             28          1  1.58101633E-04       *                     1_GWF-(1,1870)
 Package                           28                 -8.6920877                     1_GWF-SFR-(210)-inflow
 Model                             29          1  3.91273335E-05       *                     1_GWF-(3,3688)
 Package                           29                 -71.730422                     1_GWF-SFR-(210)-inflow
 Model                             30          1  1.45540604E-04       *                     1_GWF-(1,1870)
 Package                           30                 -11.204949                     1_GWF-SFR-(221)-inflow
 Model                             31          1  1.46480144E-05       *                     1_GWF-(3,3688)
 Package                           31                 -62.167957                     1_GWF-SFR-(210)-inflow
 Model                             32          1  1.09653188E-04       *                     1_GWF-(1,1726)
 Package                           32                 -12.199063                     1_GWF-SFR-(210)-inflow
 Model                             33          1  7.94798740E-06       *                     1_GWF-(1,1870)
 Package                           33                 -46.855622                     1_GWF-SFR-(210)-inflow
 Model                             34          1  1.00515343E-04       *                     1_GWF-(1,1726)
 Package                           34                 -8.7604352                     1_GWF-SFR-(210)-inflow
 Model                             35          1  4.92518510E-06       *                     1_GWF-(1,1726)
 Package                           35                 -43.751136                     1_GWF-SFR-(210)-inflow
 Model                             36          1  6.97397692E-05       *                     1_GWF-(1,1726)
 Package                           36                 -5.7608403                     1_GWF-SFR-(210)-inflow
 Model                             37          1  3.41809965E-06       *                     1_GWF-(1,1729)
 Package                           37                 -29.717825                     1_GWF-SFR-(210)-inflow
 Model                             38          1  3.92697204E-05       *                     1_GWF-(1,1726)
 Package                           38                 -4.4534303                     1_GWF-SFR-(210)-inflow
 Model                             39          1  2.92826266E-06       *                     1_GWF-(3,1721)
 Package                           39                 -17.342298                     1_GWF-SFR-(210)-inflow
 Model                             40          1  3.54299183E-05       *                     1_GWF-(1,1726)
 Package                           40                 -2.5204041                     1_GWF-SFR-(210)-inflow
 Model                             41          1 -2.47858486E-06       *                      1_GWF-(3,152)
 Package                           41                 -15.594750                     1_GWF-SFR-(210)-inflow
 Model                             42          1  1.74126154E-05       *                     1_GWF-(1,1870)
 Package                           42                 -2.0893761                     1_GWF-SFR-(210)-inflow
 Model                             43          1 -5.22494184E-06       *                      1_GWF-(3,385)
 Package                           43                 -7.4657915                     1_GWF-SFR-(210)-inflow
 Model                             44          1  7.17037693E-06       *                     1_GWF-(1,1729)
 Package                           44                 -1.6837721                     1_GWF-SFR-(221)-inflow
 Model                             45          1  2.30462473E-06       *                     1_GWF-(3,1870)
 Package                           45                 -3.7420054                     1_GWF-SFR-(210)-inflow
 Model                             46          1  1.35923169E-05       *                     1_GWF-(1,1729)
 Package                           46                 -1.0974344                     1_GWF-SFR-(210)-inflow
 Model                             47          1  1.07688464E-06       *                      1_GWF-(3,118)
 Package                           47                 -6.1677075                     1_GWF-SFR-(210)-inflow
 Model                             48          1  1.46048921E-05       *                     1_GWF-(2,1720)
 Package                           48                -0.62840423                     1_GWF-SFR-(210)-inflow
 Model                             49          1  1.13087424E-06       *                       1_GWF-(3,53)
 Package                           49                 -5.7196343                     1_GWF-SFR-(210)-inflow
 Model                             50          1  3.80934910E-06       *                     1_GWF-(3,1729)
 Package                           50                -0.99829430                     1_GWF-SFR-(210)-inflow
 Model                             51          1 -1.34097959E-06       *                       1_GWF-(3,19)
 Package                           51                 -2.3660595                     1_GWF-SFR-(210)-inflow
 Model                             52          1  3.29112308E-06       *                     1_GWF-(2,1714)
 Package                           52                -0.29743998                     1_GWF-SFR-(261)-inflow
 Model                             53          1  6.73897404E-07       *                     1_GWF-(3,1577)
 Package                           53                 -1.7466953                     1_GWF-SFR-(210)-inflow
 Model                             54          1  4.76278140E-06       *                     1_GWF-(1,1724)
 Package                           54                -0.37714044                     1_GWF-SFR-(210)-inflow
 Model                             55          1 -5.07917434E-07       *                       1_GWF-(3,86)
 Package                           55                 -1.4353508                     1_GWF-SFR-(210)-inflow
 Model                             56          1  2.79566763E-06       *                     1_GWF-(2,1721)
 Package                           56                -0.67279949                     1_GWF-SFR-(210)-inflow
 Model                             57          1  4.42542216E-07       *                     1_GWF-(3,1724)
 Package                           57                 -1.3842007                     1_GWF-SFR-(210)-inflow
 Model                             58          1  3.89827056E-06       *                     1_GWF-(1,1727)
 Package                           58                -0.15767544                     1_GWF-SFR-(210)-inflow
 Model                             59          1  3.77471707E-07       *                      1_GWF-(3,266)
 Package                           59                 -1.9255078                     1_GWF-SFR-(210)-inflow
 Model                             60          1  2.24861384E-06       *                     1_GWF-(2,1709)
 Package                           60            -4.46282607E-02                     1_GWF-SFR-(261)-inflow
 Model                             61          1  4.41541033E-07       *                      1_GWF-(3,114)
 Package                           61                -0.72969533                     1_GWF-SFR-(210)-inflow
 Model                             62          1  6.98583591E-07       *                     1_GWF-(3,1727)
 Package                           62                -0.35989638                     1_GWF-SFR-(210)-inflow
 Model                             63          1  5.67410211E-07       *                     1_GWF-(2,1709)
 Package                           63                -0.32163571                     1_GWF-SFR-(210)-inflow
 Model                             64          1  4.16782655E-07       *                     1_GWF-(3,1587)
 Package                           64                -0.17315961                     1_GWF-SFR-(210)-inflow
 Model                             65          1  2.63587793E-07       *                     1_GWF-(1,1870)
 Package                           65                -0.24111277                     1_GWF-SFR-(210)-inflow
 Model                             66          1  5.18731127E-07       *                     1_GWF-(1,1724)
 Package                           66                -0.11621382                     1_GWF-SFR-(210)-inflow
 Model                             67          1  1.70435243E-07       *                     1_GWF-(1,1870)
 Package                           67                -0.21721357                     1_GWF-SFR-(210)-inflow
 Model                             68          1  6.42626247E-07       *                     1_GWF-(1,1726)
 Package                           68                -0.10396834                     1_GWF-SFR-(210)-inflow
 Model                             69          1  1.17235317E-07       *                     1_GWF-(1,1729)
 Package                           69                -0.25271764                     1_GWF-SFR-(210)-inflow
 Model                             70          1  8.57343281E-07       *                     1_GWF-(1,1726)
 Package                           70            -9.36925689E-02                     1_GWF-SFR-(210)-inflow
 Model                             71          1  1.38646129E-07       *                      1_GWF-(3,118)
 Package                           71                -0.34345170                     1_GWF-SFR-(210)-inflow
 Model                             72          1  1.14453226E-06       *                     1_GWF-(1,1726)
 Package                           72            -7.91391017E-02                     1_GWF-SFR-(210)-inflow
 Model                             73          1  1.17350879E-07       *                      1_GWF-(3,118)
 Package                           73                -0.49288877                     1_GWF-SFR-(210)-inflow
 Model                             74          1  5.30830249E-07       *                     1_GWF-(2,1724)
 Package                           74            -5.32408479E-02                     1_GWF-SFR-(210)-inflow
 Model                             75          1  4.54431586E-08       *                      1_GWF-(3,118)
 Package                           75                -0.20066418                     1_GWF-SFR-(210)-inflow
 Model                             76          1  3.28705227E-07       *                     1_GWF-(1,1870)
 Package                           76            -5.21497014E-02                     1_GWF-SFR-(210)-inflow
 Model                             77          1  3.71394435E-08       *                      1_GWF-(3,118)
 Package                           77                -0.16606877                     1_GWF-SFR-(210)-inflow
 Model                             78          1  5.24597624E-07       *                     1_GWF-(3,1721)
 Package                           78            -1.32483662E-02                     1_GWF-SFR-(210)-inflow
 Model                             79          1  3.17668025E-08       *                      1_GWF-(3,118)
 Package                           79                -0.19381631                     1_GWF-SFR-(210)-inflow
 Model                             80          1  6.57390729E-08       *                     1_GWF-(3,1739)
 Package                           80            -3.39566052E-02                     1_GWF-SFR-(210)-inflow
 Model                             81          1  4.61915306E-08       *                     1_GWF-(3,2003)
 Package                           81            -5.12294526E-02                     1_GWF-SFR-(210)-inflow
 Model                             82          1  8.54275868E-08       *                     1_GWF-(3,1740)
 Package                           82            -7.17277399E-03       *             1_GWF-SFR-(221)-inflow
 ----------------------------------------------------------------------------------------------------------


 82 CALLS TO NUMERICAL SOLUTION IN TIME STEP 48 STRESS PERIOD 2
 94 TOTAL ITERATIONS

 MEMORY MANAGER TOTAL STORAGE BY DATA TYPE, IN MEGABYTES
 -------------------------------
                    ALLOCATED   
 DATA TYPE           MEMORY     
 -------------------------------
 Character        0.16416900    
 Logical          4.40000000E-05
 Integer          2.5196120     
 Real             5.9314640     
 -------------------------------
 Total            8.6152890     
 -------------------------------


 
 Run end date and time (yyyy/mm/dd hh:mm:ss): 2021/11/09 14:55:58
 Elapsed run time:  1 Minutes,  0.020 Seconds
 Normal termination of simulation.
