                                   MODFLOW 6
                U.S. GEOLOGICAL SURVEY MODULAR HYDROLOGIC MODEL
                            VERSION 6.2.1 02/18/2021

   MODFLOW 6 compiled Feb 18 2021 21:14:51 with IFORT compiler (ver. 19.10.3)

This software has been approved for release by the U.S. Geological 
Survey (USGS). Although the software has been subjected to rigorous 
review, the USGS reserves the right to update the software as needed 
pursuant to further analysis and review. No warranty, expressed or 
implied, is made by the USGS or the U.S. Government as to the 
functionality of the software and related material nor shall the 
fact of release constitute any such warranty. Furthermore, the 
software is released on condition that neither the USGS nor the U.S. 
Government shall be held liable for any damages resulting from its 
authorized or unauthorized use. Also refer to the USGS Water 
Resources Software User Rights Notice for complete use, copyright, 
and distribution information.


System command used to initiate simulation:
..\bins\win\mf6

MODFLOW was compiled using uniform precision.

Real Variables
  KIND: 8
  TINY (smallest non-zero value):    2.225074-308
  HUGE (largest value):    1.797693+308
  PRECISION: 15
  BIT SIZE: 64

Integer Variables
  KIND: 4
  HUGE (largest value): 2147483647
  BIT SIZE: 32

Long Integer Variables
  KIND: 8
  HUGE (largest value): 9223372036854775807
  BIT SIZE: 64

Logical Variables
  KIND: 4
  BIT SIZE: 32
 

 OPENED mfsim.nam
 FILE TYPE:NAM   UNIT 1001   STATUS:OLD                 
 FORMAT:FORMATTED              ACCESS:SEQUENTIAL          
 ACTION:READ                

 # File generated by Flopy version 3.3.5 on 12/09/2021 at 09:36:05.

 READING SIMULATION OPTIONS
 END OF SIMULATION OPTIONS

 READING SIMULATION TIMING

 OPENED hagfors_1.tdis
 FILE TYPE:TDIS   UNIT 1002   STATUS:OLD                 
 FORMAT:FORMATTED              ACCESS:SEQUENTIAL          
 ACTION:READ                


 TDIS -- TEMPORAL DISCRETIZATION PACKAGE,
 VERSION 1 : 11/13/2014 - INPUT READ FROM UNIT 1002
 # File generated by Flopy version 3.3.5 on 12/09/2021 at 09:36:05.
 PROCESSING TDIS OPTIONS
    SIMULATION TIME UNIT IS DAYS
    SIMULATION STARTING DATE AND TIME IS 2016-01-01                    
 END OF TDIS OPTIONS
 PROCESSING TDIS DIMENSIONS
    2 STRESS PERIOD(S) IN SIMULATION
 END OF TDIS DIMENSIONS
 PROCESSING TDIS PERIODDATA


 STRESS PERIOD     LENGTH       TIME STEPS     MULTIPLIER FOR DELT
 ----------------------------------------------------------------------------
        1         1.000000          1                    1.000
        2         1460.000         48                    1.000
 END OF TDIS PERIODDATA
 END OF SIMULATION TIMING

 READING SIMULATION MODELS
    GWF6 model HAGFORS_1 will be created as model 1
 END OF SIMULATION MODELS

 READING SIMULATION EXCHANGES
 END OF SIMULATION EXCHANGES

 READING SOLUTIONGROUP

 Creating solution: SLN_1           

 OPENED hagfors_1.ims
 FILE TYPE:IMS   UNIT 1014   STATUS:OLD                 
 FORMAT:FORMATTED              ACCESS:SEQUENTIAL          
 ACTION:READ                

 END OF SIMULATION SOLUTIONGROUP

 IMS -- ITERATIVE MODEL SOLUTION PACKAGE, VERSION 6, 4/28/2017
         INPUT READ FROM UNIT 1014
 # File generated by Flopy version 3.3.5 on 12/09/2021 at 09:36:05.

 PROCESSING IMS OPTIONS
 SIMPLE OPTION:
 DEFAULT SOLVER INPUT VALUES FOR FAST SOLUTIONS
 END OF IMS OPTIONS

 PROCESSING IMS NONLINEAR
 END OF IMS NONLINEAR DATA
 ***UNDER-RELAXATION WILL NOT BE USED***
 
 ***IMS LINEAR SOLVER WILL BE USED***

 IMSLINEAR -- UNSTRUCTURED LINEAR SOLUTION PACKAGE, VERSION 8, 04/28/2017

 PROCESSING LINEAR DATA
 END OF LINEAR DATA
 
 OUTER ITERATION CONVERGENCE CRITERION    (DVCLOSE) =    0.100000E-01
 MAXIMUM NUMBER OF OUTER ITERATIONS        (MXITER) = 750
 SOLVER PRINTOUT INDEX                     (IPRIMS) = 1
 NONLINEAR ITERATION METHOD            (NONLINMETH) = 0
 LINEAR SOLUTION METHOD                   (LINMETH) = 1

       SOLUTION BY THE BICONJUGATE-GRADIENT STABILIZED METHOD
 ------------------------------------------------------------------
 MAXIMUM OF 750 CALLS OF SOLUTION ROUTINE
 MAXIMUM OF 50 INTERNAL ITERATIONS PER CALL TO SOLUTION ROUTINE
 LINEAR ACCELERATION METHOD            = BCGS      
 MATRIX PRECONDITIONING TYPE           = INCOMPLETE LU       
 MATRIX SCALING APPROACH               = NO SCALING          
 MATRIX REORDERING APPROACH            = ORIGINAL ORDERING        
 NUMBER OF ORTHOGONALIZATIONS          = 0
 HEAD CHANGE CRITERION FOR CLOSURE     =    0.10000E-02
 RESIDUAL CHANGE CRITERION FOR CLOSURE =    0.10000E+00
 RESIDUAL CONVERGENCE OPTION           = 0
 RESIDUAL CONVERGENCE NORM             = INFINITY NORM   
 RELAXATION FACTOR                     =    0.00000E+00



1
                            STRESS PERIOD NO.    1, LENGTH =   1.000000    
                            -----------------------------------------------

                              NUMBER OF TIME STEPS =     1

                               MULTIPLIER FOR DELT =     1.000

                            INITIAL TIME STEP SIZE =   1.000000    



 PSEUDO-TRANSIENT CONTINUATION WILL BE APPLIED TO MODEL 1 ("HAGFORS_1") DURING THIS TIME STEP

 OUTER ITERATION SUMMARY
 ----------------------------------------------------------------------------------------------------------
                                OUTER      INNER                    STEP   MAXIMUM CHANGE MODEL-(CELLID) OR
 OUTER ITERATION STEP       ITERATION  ITERATION  MAXIMUM CHANGE SUCCESS             MODEL-PACKAGE-(NUMBER)
 ----------------------------------------------------------------------------------------------------------
 Model                              1         12       3.1273780                             1_GWF-(1,2387)
 Model                              2         16       3.8049375                              1_GWF-(1,913)
 Model                              3         18       1.6917094                              1_GWF-(1,997)
 Model                              4         20       1.4706721                             1_GWF-(1,1761)
 Model                              5         21      0.56389989                             1_GWF-(1,1842)
 Model                              6         14      0.13065010                             1_GWF-(3,1529)
 Model                              7          2  3.22902811E-03       *                     1_GWF-(1,1709)
 Package                            7                 -709.46699                     1_GWF-SFR-(206)-inflow
 Model                              8          2  1.42260878E-03       *                     1_GWF-(3,1708)
 Package                            8                 -948.98043                     1_GWF-SFR-(206)-inflow
 Model                              9          1  5.02487195E-04       *                     1_GWF-(1,1290)
 Package                            9                 -460.43390                     1_GWF-SFR-(206)-inflow
 Model                             10          1  4.78197365E-04       *                     1_GWF-(3,1598)
 Package                           10                 -152.20920                     1_GWF-SFR-(206)-inflow
 Model                             11          1  6.32621584E-04       *                     1_GWF-(3,1301)
 Package                           11                 -91.112153                     1_GWF-SFR-(206)-inflow
 Model                             12          1  6.24965259E-04       *                     1_GWF-(3,1226)
 Package                           12                 -77.040186                     1_GWF-SFR-(206)-inflow
 Model                             13          1  6.76027041E-04       *                     1_GWF-(3,1321)
 Package                           13                 -63.346010                     1_GWF-SFR-(206)-inflow
 Model                             14          1  6.44534407E-04       *                     1_GWF-(3,1324)
 Package                           14                 -56.291786                     1_GWF-SFR-(206)-inflow
 Model                             15          1  7.09005445E-04       *                     1_GWF-(3,1325)
 Package                           15                 -45.375927                     1_GWF-SFR-(206)-inflow
 Model                             16          1  6.13935587E-04       *                     1_GWF-(3,1232)
 Package                           16                 -42.467175                     1_GWF-SFR-(206)-inflow
 Model                             17          1  7.06715496E-04       *                     1_GWF-(1,1233)
 Package                           17                 -33.119650                     1_GWF-SFR-(206)-inflow
 Model                             18          1  5.33353641E-04       *                     1_GWF-(3,1331)
 Package                           18                 -33.396371                     1_GWF-SFR-(206)-inflow
 Model                             19          1  6.96276594E-04       *                     1_GWF-(1,1332)
 Package                           19                 -23.918009                     1_GWF-SFR-(206)-inflow
 Model                             20          1  4.02624880E-04       *                     1_GWF-(3,1421)
 Package                           20                 -27.552643                     1_GWF-SFR-(206)-inflow
 Model                             21          1  6.69860914E-04       *                     1_GWF-(3,1421)
 Package                           21                 -15.972636                     1_GWF-SFR-(206)-inflow
 Model                             22          1  2.22638539E-04       *                     1_GWF-(3,1422)
 Package                           22                 -22.937336                     1_GWF-SFR-(206)-inflow
 Model                             23          1  5.99065155E-04       *                     1_GWF-(3,1422)
 Package                           23                 -8.7172240                     1_GWF-SFR-(206)-inflow
 Model                             24          1  1.35431117E-04       *                     1_GWF-(3,1524)
 Package                           24                 -17.758214                     1_GWF-SFR-(206)-inflow
 Model                             25          1  7.20390031E-04       *                     1_GWF-(3,1422)
 Package                           25                 -6.1213479                     1_GWF-SFR-(206)-inflow
 Model                             26          1  9.07585243E-05       *                     1_GWF-(1,1422)
 Package                           26                 -19.325629                     1_GWF-SFR-(206)-inflow
 Model                             27          1  6.64865282E-04       *                     1_GWF-(3,1523)
 Package                           27                 -4.8039143                     1_GWF-SFR-(206)-inflow
 Model                             28          1  6.91994300E-05       *                     1_GWF-(1,1422)
 Package                           28                 -17.883319                     1_GWF-SFR-(206)-inflow
 Model                             29          1  5.66767152E-04       *                     1_GWF-(3,1525)
 Package                           29                 -2.4953194                     1_GWF-SFR-(206)-inflow
 Model                             30          1  4.50054638E-05       *                     1_GWF-(1,1421)
 Package                           30                 -14.987162                     1_GWF-SFR-(206)-inflow
 Model                             31          1  5.30383681E-04       *                     1_GWF-(3,1525)
 Package                           31                 -1.2381366                     1_GWF-SFR-(206)-inflow
 Model                             32          1  2.56948815E-05       *                     1_GWF-(3,1528)
 Package                           32                 -12.430993                     1_GWF-SFR-(206)-inflow
 Model                             33          1  2.78251908E-04       *                     1_GWF-(3,1525)
 Package                           33                 -1.3799150                     1_GWF-SFR-(217)-inflow
 Model                             34          1  2.10348146E-05       *                     1_GWF-(3,1528)
 Package                           34                 -6.4983663                     1_GWF-SFR-(206)-inflow
 Model                             35          1  3.20504819E-04       *                     1_GWF-(3,1525)
 Package                           35                -0.81527946                     1_GWF-SFR-(206)-inflow
 Model                             36          1  9.30607200E-06       *                     1_GWF-(3,1629)
 Package                           36                 -6.8451560                     1_GWF-SFR-(206)-inflow
 Model                             37          1  9.69204061E-05       *                     1_GWF-(3,1525)
 Package                           37                -0.78940760                     1_GWF-SFR-(206)-inflow
 Model                             38          1  1.02234131E-05       *                     1_GWF-(3,1428)
 Package                           38                 -2.2680925                     1_GWF-SFR-(206)-inflow
 Model                             39          1  1.03868842E-04       *                     1_GWF-(3,1526)
 Package                           39                -0.24762573                     1_GWF-SFR-(206)-inflow
 Model                             40          1  7.84444276E-06       *                      1_GWF-(3,297)
 Package                           40                 -2.1770821                     1_GWF-SFR-(206)-inflow
 Model                             41          1  3.22760888E-05       *                     1_GWF-(3,1627)
 Package                           41                -0.23103597                     1_GWF-SFR-(206)-inflow
 Model                             42          1 -9.11228875E-06       *                      1_GWF-(3,297)
 Package                           42                -0.83615619                     1_GWF-SFR-(206)-inflow
 Model                             43          1  2.44709305E-05       *                     1_GWF-(3,1525)
 Package                           43                -0.13347529                     1_GWF-SFR-(206)-inflow
 Model                             44          1  5.17041184E-06       *                     1_GWF-(3,1530)
 Package                           44                -0.49322472                     1_GWF-SFR-(206)-inflow
 Model                             45          1  2.20224677E-05       *                     1_GWF-(3,1528)
 Package                           45                -0.12391219                     1_GWF-SFR-(206)-inflow
 Model                             46          1  3.41596993E-06       *                     1_GWF-(1,1422)
 Package                           46                -0.54024114                     1_GWF-SFR-(206)-inflow
 Model                             47          1  2.62086938E-05       *                     1_GWF-(3,1525)
 Package                           47            -5.93521906E-02                     1_GWF-SFR-(206)-inflow
 Model                             48          1  2.07590085E-06       *                     1_GWF-(1,1531)
 Package                           48                -0.53222207                     1_GWF-SFR-(206)-inflow
 Model                             49          1  2.06810141E-05       *                     1_GWF-(3,1528)
 Package                           49            -4.98662885E-02                     1_GWF-SFR-(206)-inflow
 Model                             50          1  2.21304191E-06       *                       1_GWF-(3,18)
 Package                           50                -0.52864737                     1_GWF-SFR-(206)-inflow
 Model                             51          1  8.94048853E-06       *                     1_GWF-(3,1522)
 Package                           51            -3.62151507E-02                     1_GWF-SFR-(206)-inflow
 Model                             52          1  3.38095387E-06       *                      1_GWF-(3,318)
 Package                           52            -8.64920135E-02                     1_GWF-SFR-(206)-inflow
 Model                             53          1  2.74923067E-06       *                     1_GWF-(3,1336)
 Package                           53                -0.10125666                     1_GWF-SFR-(206)-inflow
 Model                             54          1  2.90882875E-06       *                     1_GWF-(3,1524)
 Package                           54            -9.32195047E-02                     1_GWF-SFR-(206)-inflow
 Model                             55          1  2.49057618E-06       *                     1_GWF-(3,1528)
 Package                           55            -3.49536392E-02                     1_GWF-SFR-(206)-inflow
 Model                             56          1  1.84958520E-06       *                     1_GWF-(3,1523)
 Package                           56            -8.35575680E-02                     1_GWF-SFR-(206)-inflow
 Model                             57          1  2.99813919E-06       *                     1_GWF-(3,1528)
 Package                           57            -1.96088364E-02                     1_GWF-SFR-(206)-inflow
 Model                             58          1  1.21676933E-06       *                     1_GWF-(1,1422)
 Package                           58            -8.40982732E-02                     1_GWF-SFR-(206)-inflow
 Model                             59          1  3.95090788E-06       *                     1_GWF-(3,1525)
 Package                           59            -1.26824551E-02                     1_GWF-SFR-(206)-inflow
 Model                             60          1  7.66297205E-07       *                     1_GWF-(1,1422)
 Package                           60            -9.51030290E-02                     1_GWF-SFR-(206)-inflow
 Model                             61          1  6.41589000E-06       *                     1_GWF-(3,1525)
 Package                           61            -1.05222876E-02                     1_GWF-SFR-(206)-inflow
 Model                             62          1  4.07264650E-07       *                     1_GWF-(1,1420)
 Package                           62                -0.13462486                     1_GWF-SFR-(206)-inflow
 Model                             63          1  7.38002237E-06       *                     1_GWF-(3,1525)
 Package                           63            -1.44190619E-02                     1_GWF-SFR-(206)-inflow
 Model                             64          1  1.98789849E-07       *                     1_GWF-(3,1525)
 Package                           64                -0.14451859                     1_GWF-SFR-(206)-inflow
 Model                             65          1  1.77225144E-06       *                     1_GWF-(3,1525)
 Package                           65            -2.03997890E-02                     1_GWF-SFR-(206)-inflow
 Model                             66          1  2.84970895E-07       *                     1_GWF-(1,1421)
 Package                           66            -3.44262948E-02                     1_GWF-SFR-(206)-inflow
 Model                             67          1  1.24895601E-06       *                     1_GWF-(3,1525)
 Package                           67            -8.85351155E-03       *             1_GWF-SFR-(206)-inflow
 ----------------------------------------------------------------------------------------------------------


 67 CALLS TO NUMERICAL SOLUTION IN TIME STEP 1 STRESS PERIOD 1
 164 TOTAL ITERATIONS
1
                            STRESS PERIOD NO.    2, LENGTH =   1460.000    
                            -----------------------------------------------

                              NUMBER OF TIME STEPS =    48

                               MULTIPLIER FOR DELT =     1.000

                            INITIAL TIME STEP SIZE =   30.41667    

 OUTER ITERATION SUMMARY
 ----------------------------------------------------------------------------------------------------------
                                OUTER      INNER                    STEP   MAXIMUM CHANGE MODEL-(CELLID) OR
 OUTER ITERATION STEP       ITERATION  ITERATION  MAXIMUM CHANGE SUCCESS             MODEL-PACKAGE-(NUMBER)
 ----------------------------------------------------------------------------------------------------------
 Model                              1          5 -5.35766896E-03       *                     1_GWF-(1,2799)
 Package                            1                 -2788867.4                     1_GWF-SFR-(206)-inflow
 Model                              2          1 -2.37704295E-04       *                     1_GWF-(3,2274)
 Package                            2                  836.86826                     1_GWF-SFR-(206)-inflow
 Model                              3          1 -3.94306992E-04       *                     1_GWF-(3,2202)
 Package                            3                  681.11241                     1_GWF-SFR-(206)-inflow
 Model                              4          1 -3.78275458E-04       *                     1_GWF-(3,1529)
 Package                            4                  707.96436                     1_GWF-SFR-(206)-inflow
 Model                              5          1 -7.21038035E-04       *                     1_GWF-(3,1632)
 Package                            5                  364.07638                     1_GWF-SFR-(206)-inflow
 Model                              6          1 -1.17810657E-04       *                     1_GWF-(3,1427)
 Package                            6                  947.76024                     1_GWF-SFR-(206)-inflow
 Model                              7          1 -5.27983627E-04       *                     1_GWF-(3,1526)
 Package                            7                  87.750653                     1_GWF-SFR-(217)-inflow
 Model                              8          1 -7.08404009E-05       *                     1_GWF-(3,1632)
 Package                            8                  368.20174                     1_GWF-SFR-(206)-inflow
 Model                              9          1 -3.41797168E-04       *                     1_GWF-(3,1528)
 Package                            9                  222.07273                     1_GWF-SFR-(206)-inflow
 Model                             10          1 -8.71901263E-05       *                     1_GWF-(3,1523)
 Package                           10                  284.35715                     1_GWF-SFR-(206)-inflow
 Model                             11          1 -2.32519435E-04       *                     1_GWF-(3,1525)
 Package                           11                  132.59423                     1_GWF-SFR-(206)-inflow
 Model                             12          1 -6.12176652E-05       *                     1_GWF-(3,1528)
 Package                           12                  231.95765                     1_GWF-SFR-(206)-inflow
 Model                             13          1 -1.98326598E-04       *                     1_GWF-(3,1525)
 Package                           13                  45.635271                     1_GWF-SFR-(206)-inflow
 Model                             14          1 -4.25438486E-05       *                     1_GWF-(3,1528)
 Package                           14                  225.92697                     1_GWF-SFR-(206)-inflow
 Model                             15          1 -2.23276446E-04       *                     1_GWF-(3,1525)
 Package                           15                  11.557580                     1_GWF-SFR-(206)-inflow
 Model                             16          1 -2.73040595E-05       *                     1_GWF-(1,1624)
 Package                           16                  230.88068                     1_GWF-SFR-(206)-inflow
 Model                             17          1 -2.70034921E-04       *                     1_GWF-(3,1525)
 Package                           17                  14.759973                     1_GWF-SFR-(217)-inflow
 Model                             18          1 -1.63029319E-05       *                     1_GWF-(1,1623)
 Package                           18                  232.13057                     1_GWF-SFR-(206)-inflow
 Model                             19          1 -1.54424739E-04       *                     1_GWF-(3,1525)
 Package                           19                  30.479849                     1_GWF-SFR-(217)-inflow
 Model                             20          1 -1.42244833E-05       *                     1_GWF-(1,1525)
 Package                           20                  122.64067                     1_GWF-SFR-(206)-inflow
 Model                             21          1 -1.43322913E-04       *                     1_GWF-(3,1525)
 Package                           21                  24.076929                     1_GWF-SFR-(206)-inflow
 Model                             22          1 -7.60232859E-06       *                     1_GWF-(1,1524)
 Package                           22                  117.33088                     1_GWF-SFR-(206)-inflow
 Model                             23          1 -1.21404917E-04       *                     1_GWF-(3,1525)
 Package                           23                  12.658148                     1_GWF-SFR-(206)-inflow
 Model                             24          1 -4.03341861E-06       *                     1_GWF-(2,1903)
 Package                           24                  81.565462                     1_GWF-SFR-(206)-inflow
 Model                             25          1 -1.81270211E-05       *                     1_GWF-(3,1344)
 Package                           25                  12.753362                     1_GWF-SFR-(206)-inflow
 Model                             26          1 -6.59013455E-06       *                     1_GWF-(3,1523)
 Package                           26                  20.405461                     1_GWF-SFR-(206)-inflow
 Model                             27          1 -4.38643450E-05       *                     1_GWF-(3,1523)
 Package                           27                  3.2058747                     1_GWF-SFR-(206)-inflow
 Model                             28          1 -2.33509610E-06       *                     1_GWF-(3,1248)
 Package                           28                  32.648070                     1_GWF-SFR-(206)-inflow
 Model                             29          1 -2.09919225E-05       *                     1_GWF-(3,1249)
 Package                           29                  2.7366037                     1_GWF-SFR-(206)-inflow
 Model                             30          1 -2.81833948E-06       *                     1_GWF-(1,1420)
 Package                           30                  8.8502684                     1_GWF-SFR-(206)-inflow
 Model                             31          1 -5.17137778E-06       *                     1_GWF-(3,1523)
 Package                           31                  6.9008664                     1_GWF-SFR-(206)-inflow
 Model                             32          1 -5.89589661E-06       *                     1_GWF-(3,1742)
 Package                           32                  4.7129513                     1_GWF-SFR-(206)-inflow
 Model                             33          1 -4.08643260E-06       *                     1_GWF-(3,1523)
 Package                           33                  1.9987585                     1_GWF-SFR-(206)-inflow
 Model                             34          1 -2.22775131E-06       *                     1_GWF-(3,1428)
 Package                           34                  5.8190258                     1_GWF-SFR-(206)-inflow
 Model                             35          1 -5.33681958E-06       *                     1_GWF-(3,1525)
 Package                           35                 0.30727103                     1_GWF-SFR-(257)-inflow
 Model                             36          1 -1.34840366E-06       *                     1_GWF-(1,1417)
 Package                           36                  5.2823736                     1_GWF-SFR-(206)-inflow
 Model                             37          1 -7.93212632E-06       *                     1_GWF-(3,1525)
 Package                           37                 0.40051142                     1_GWF-SFR-(217)-inflow
 Model                             38          1 -8.15175525E-07       *                     1_GWF-(1,1416)
 Package                           38                  5.8188605                     1_GWF-SFR-(206)-inflow
 Model                             39          1 -8.73036265E-06       *                     1_GWF-(3,1525)
 Package                           39                 0.74538817                     1_GWF-SFR-(217)-inflow
 Model                             40          1 -4.26379046E-07       *                     1_GWF-(1,1528)
 Package                           40                  5.3613937                     1_GWF-SFR-(206)-inflow
 Model                             41          1 -5.04954289E-06       *                     1_GWF-(3,1525)
 Package                           41                  1.0510057                     1_GWF-SFR-(206)-inflow
 Model                             42          1 -3.71217851E-07       *                     1_GWF-(1,1517)
 Package                           42                  3.0951715                     1_GWF-SFR-(206)-inflow
 Model                             43          1 -2.43726254E-06       *                     1_GWF-(3,1629)
 Package                           43                 0.51188838                     1_GWF-SFR-(206)-inflow
 Model                             44          1 -2.84304463E-07       *                     1_GWF-(3,1526)
 Package                           44                  1.9991331                     1_GWF-SFR-(206)-inflow
 Model                             45          1 -4.18014707E-06       *                     1_GWF-(3,1526)
 Package                           45             9.67357757E-02                     1_GWF-SFR-(206)-inflow
 Model                             46          1 -1.64816186E-07       *                     1_GWF-(3,1074)
 Package                           46                  2.3524940                     1_GWF-SFR-(206)-inflow
 Model                             47          1 -3.17432040E-07       *                     1_GWF-(3,1903)
 Package                           47                 0.36014491                     1_GWF-SFR-(206)-inflow
 Model                             48          1 -3.88202437E-07       *                     1_GWF-(3,1526)
 Package                           48                 0.29391508                     1_GWF-SFR-(206)-inflow
 Model                             49          1 -3.74273014E-07       *                     1_GWF-(3,1427)
 Package                           49                 0.21919208                     1_GWF-SFR-(206)-inflow
 Model                             50          1 -1.91566016E-07       *                     1_GWF-(3,1525)
 Package                           50                 0.35102502                     1_GWF-SFR-(206)-inflow
 Model                             51          1 -3.20959884E-07       *                     1_GWF-(3,1426)
 Package                           51             3.66428599E-02                     1_GWF-SFR-(206)-inflow
 Model                             52          1 -1.19105067E-07       *                     1_GWF-(3,1525)
 Package                           52                 0.30315406                     1_GWF-SFR-(206)-inflow
 Model                             53          1 -3.90409127E-07       *                     1_GWF-(3,1526)
 Package                           53             2.32469356E-02                     1_GWF-SFR-(206)-inflow
 Model                             54          1 -7.23991320E-08       *                     1_GWF-(3,1528)
 Package                           54                 0.27962215                     1_GWF-SFR-(206)-inflow
 Model                             55          1 -4.31877396E-07       *                     1_GWF-(3,1525)
 Package                           55             4.95082285E-02                     1_GWF-SFR-(206)-inflow
 Model                             56          1 -4.91583023E-08       *                     1_GWF-(3,1632)
 Package                           56                 0.23053178                     1_GWF-SFR-(206)-inflow
 Model                             57          1 -2.58366043E-07       *                     1_GWF-(3,1526)
 Package                           57             8.55212513E-02                     1_GWF-SFR-(206)-inflow
 Model                             58          1 -5.13236387E-08       *                     1_GWF-(3,1632)
 Package                           58                 0.15412950                     1_GWF-SFR-(206)-inflow
 Model                             59          1 -1.81348156E-07       *                     1_GWF-(3,1523)
 Package                           59             5.50645302E-02                     1_GWF-SFR-(206)-inflow
 Model                             60          1 -3.50568712E-08       *                     1_GWF-(3,1632)
 Package                           60                 0.10818495                     1_GWF-SFR-(206)-inflow
 Model                             61          1 -1.62734239E-07       *                     1_GWF-(3,1523)
 Package                           61             3.46576078E-02                     1_GWF-SFR-(206)-inflow
 Model                             62          1 -2.49034997E-08       *                     1_GWF-(3,1632)
 Package                           62                 0.10285092                     1_GWF-SFR-(206)-inflow
 Model                             63          1 -1.67845883E-07       *                     1_GWF-(3,1523)
 Package                           63             2.24122438E-02                     1_GWF-SFR-(206)-inflow
 Model                             64          1 -1.57825468E-08       *                     1_GWF-(3,1632)
 Package                           64                 0.10665406                     1_GWF-SFR-(206)-inflow
 Model                             65          1 -1.79632337E-07       *                     1_GWF-(3,1525)
 Package                           65             1.68981215E-02                     1_GWF-SFR-(206)-inflow
 Model                             66          1 -8.96162078E-09       *                     1_GWF-(1,1741)
 Package                           66                 0.11163220                     1_GWF-SFR-(206)-inflow
 Model                             67          1 -1.06877025E-07       *                     1_GWF-(3,1525)
 Package                           67             1.43769418E-02                     1_GWF-SFR-(206)-inflow
 Model                             68          1 -6.04114803E-09       *                     1_GWF-(3,1422)
 Package                           68             6.70148223E-02                     1_GWF-SFR-(206)-inflow
 Model                             69          1 -8.10594827E-08       *                     1_GWF-(3,1525)
 Package                           69             8.70633839E-03       *             1_GWF-SFR-(206)-inflow
 ----------------------------------------------------------------------------------------------------------


 69 CALLS TO NUMERICAL SOLUTION IN TIME STEP 1 STRESS PERIOD 2
 73 TOTAL ITERATIONS

 OUTER ITERATION SUMMARY
 ----------------------------------------------------------------------------------------------------------
                                OUTER      INNER                    STEP   MAXIMUM CHANGE MODEL-(CELLID) OR
 OUTER ITERATION STEP       ITERATION  ITERATION  MAXIMUM CHANGE SUCCESS             MODEL-PACKAGE-(NUMBER)
 ----------------------------------------------------------------------------------------------------------
 Model                              1         25     -0.14655906                              1_GWF-(1,342)
 Model                              2          2 -3.83768009E-03       *                       1_GWF-(1,34)
 Package                            2                  86231.240                     1_GWF-SFR-(206)-inflow
 Model                              3          2 -1.57664092E-03       *                       1_GWF-(1,93)
 Package                            3                  34066.205                     1_GWF-SFR-(206)-inflow
 Model                              4          1 -6.16904031E-04       *                       1_GWF-(1,93)
 Package                            4                  15544.852                     1_GWF-SFR-(206)-inflow
 Model                              5          1 -4.43314204E-04       *                      1_GWF-(2,132)
 Package                            5                  5452.1167                     1_GWF-SFR-(206)-inflow
 Model                              6          1 -5.48179246E-04       *                      1_GWF-(3,132)
 Package                            6                  2967.4263                     1_GWF-SFR-(206)-inflow
 Model                              7          1 -4.82859259E-04       *                      1_GWF-(3,104)
 Package                            7                  2228.0756                     1_GWF-SFR-(206)-inflow
 Model                              8          1 -4.32678715E-04       *                       1_GWF-(3,75)
 Package                            8                  1723.1218                     1_GWF-SFR-(206)-inflow
 Model                              9          1 -3.56523772E-04       *                      1_GWF-(3,108)
 Package                            9                  1458.2225                     1_GWF-SFR-(206)-inflow
 Model                             10          1 -3.25234497E-04       *                      1_GWF-(3,109)
 Package                           10                  1145.4370                     1_GWF-SFR-(206)-inflow
 Model                             11          1 -2.76517958E-04       *                      1_GWF-(3,792)
 Package                           11                  997.09080                     1_GWF-SFR-(206)-inflow
 Model                             12          1 -2.72001496E-04       *                      1_GWF-(3,710)
 Package                           12                  793.73171                     1_GWF-SFR-(206)-inflow
 Model                             13          1 -2.22606065E-04       *                      1_GWF-(3,711)
 Package                           13                  715.56030                     1_GWF-SFR-(206)-inflow
 Model                             14          1 -2.24226258E-04       *                      1_GWF-(3,712)
 Package                           14                  564.36946                     1_GWF-SFR-(206)-inflow
 Model                             15          1 -1.69812912E-04       *                      1_GWF-(3,714)
 Package                           15                  533.86873                     1_GWF-SFR-(206)-inflow
 Model                             16          1 -1.95665757E-04       *                     1_GWF-(3,1370)
 Package                           16                  401.11302                     1_GWF-SFR-(206)-inflow
 Model                             17          1 -1.39354946E-04       *                     1_GWF-(3,1369)
 Package                           17                  413.46484                     1_GWF-SFR-(206)-inflow
 Model                             18          1 -1.87685588E-04       *                     1_GWF-(3,1457)
 Package                           18                  272.88683                     1_GWF-SFR-(206)-inflow
 Model                             19          1 -9.58122107E-05       *                     1_GWF-(3,1369)
 Package                           19                  339.86625                     1_GWF-SFR-(206)-inflow
 Model                             20          1 -1.72973236E-04       *                     1_GWF-(3,1271)
 Package                           20                  156.26314                     1_GWF-SFR-(206)-inflow
 Model                             21          1 -4.97887391E-05       *                     1_GWF-(3,1275)
 Package                           21                  287.61750                     1_GWF-SFR-(206)-inflow
 Model                             22          1 -1.69978200E-04       *                     1_GWF-(3,1271)
 Package                           22                  60.897228                     1_GWF-SFR-(206)-inflow
 Model                             23          1 -3.63010271E-05       *                       1_GWF-(3,12)
 Package                           23                  251.09724                     1_GWF-SFR-(206)-inflow
 Model                             24          1 -2.09338700E-04       *                     1_GWF-(3,1421)
 Package                           24                  38.633224                     1_GWF-SFR-(206)-inflow
 Model                             25          1 -2.08982029E-05       *                       1_GWF-(3,12)
 Package                           25                  274.75291                     1_GWF-SFR-(206)-inflow
 Model                             26          1 -1.27212916E-04       *                     1_GWF-(3,1524)
 Package                           26                  30.094299                     1_GWF-SFR-(206)-inflow
 Model                             27          1 -1.20855534E-05       *                     1_GWF-(3,1525)
 Package                           27                  147.41551                     1_GWF-SFR-(206)-inflow
 Model                             28          1 -1.36770249E-04       *                     1_GWF-(3,1525)
 Package                           28                  18.142094                     1_GWF-SFR-(217)-inflow
 Model                             29          1 -5.83382669E-06       *                     1_GWF-(3,1629)
 Package                           29                  131.11513                     1_GWF-SFR-(206)-inflow
 Model                             30          1 -4.88404793E-05       *                     1_GWF-(3,1525)
 Package                           30                  19.807185                     1_GWF-SFR-(206)-inflow
 Model                             31          1 -6.87958882E-06       *                     1_GWF-(3,1530)
 Package                           31                  41.420878                     1_GWF-SFR-(206)-inflow
 Model                             32          1 -4.92886355E-05       *                     1_GWF-(3,1525)
 Package                           32                  8.0033663                     1_GWF-SFR-(206)-inflow
 Model                             33          1  3.34334683E-06       *                      1_GWF-(1,866)
 Package                           33                  51.869222                     1_GWF-SFR-(206)-inflow
 Model                             34          1 -4.65543330E-05       *                     1_GWF-(3,1525)
 Package                           34                -0.60462593                     1_GWF-SFR-(217)-inflow
 Model                             35          1 -3.90202777E-06       *                      1_GWF-(3,287)
 Package                           35                  25.197424                     1_GWF-SFR-(206)-inflow
 Model                             36          1 -4.70671660E-06       *                      1_GWF-(3,297)
 Package                           36                  9.9008961                     1_GWF-SFR-(206)-inflow
 Model                             37          1 -4.98103694E-06       *                     1_GWF-(3,1524)
 Package                           37                  7.4430481                     1_GWF-SFR-(206)-inflow
 Model                             38          1 -8.88068976E-06       *                     1_GWF-(3,1525)
 Package                           38                  4.0752899                     1_GWF-SFR-(206)-inflow
 Model                             39          1 -2.58949922E-06       *                     1_GWF-(1,1518)
 Package                           39                  8.2120267                     1_GWF-SFR-(206)-inflow
 Model                             40          1 -6.24387803E-06       *                     1_GWF-(3,1525)
 Package                           40                  1.1128689                     1_GWF-SFR-(206)-inflow
 Model                             41          1 -1.62713025E-06       *                     1_GWF-(1,1518)
 Package                           41                  5.8390677                     1_GWF-SFR-(206)-inflow
 Model                             42          1 -7.10335902E-06       *                     1_GWF-(3,1525)
 Package                           42                 0.50411768                     1_GWF-SFR-(206)-inflow
 Model                             43          1 -1.04381056E-06       *                     1_GWF-(1,1518)
 Package                           43                  5.8308788                     1_GWF-SFR-(206)-inflow
 Model                             44          1 -8.09780536E-06       *                     1_GWF-(3,1525)
 Package                           44                 0.57828873                     1_GWF-SFR-(206)-inflow
 Model                             45          1 -6.12541214E-07       *                     1_GWF-(1,1518)
 Package                           45                  5.8897694                     1_GWF-SFR-(206)-inflow
 Model                             46          1 -7.11315639E-06       *                     1_GWF-(3,1525)
 Package                           46                 0.78554496                     1_GWF-SFR-(206)-inflow
 Model                             47          1 -3.79631587E-07       *                     1_GWF-(1,1518)
 Package                           47                  4.9291527                     1_GWF-SFR-(206)-inflow
 Model                             48          1 -4.71222748E-06       *                     1_GWF-(3,1528)
 Package                           48                 0.67000847                     1_GWF-SFR-(206)-inflow
 Model                             49          1 -2.56104784E-07       *                     1_GWF-(3,1523)
 Package                           49                  3.2141066                     1_GWF-SFR-(206)-inflow
 Model                             50          1 -2.45358888E-06       *                     1_GWF-(3,1523)
 Package                           50                 0.42085201                     1_GWF-SFR-(206)-inflow
 Model                             51          1 -2.16382944E-07       *                     1_GWF-(3,1536)
 Package                           51                  1.7411926                     1_GWF-SFR-(206)-inflow
 Model                             52          1 -1.69100358E-06       *                     1_GWF-(3,1529)
 Package                           52                 0.18605218                     1_GWF-SFR-(206)-inflow
 Model                             53          1 -2.29234331E-07       *                      1_GWF-(3,382)
 Package                           53                  1.1561445                     1_GWF-SFR-(206)-inflow
 Model                             54          1 -6.94887802E-07       *                     1_GWF-(3,1522)
 Package                           54                 0.20715315                     1_GWF-SFR-(217)-inflow
 Model                             55          1 -2.14762792E-07       *                     1_GWF-(3,1533)
 Package                           55                 0.43379446                     1_GWF-SFR-(206)-inflow
 Model                             56          1 -4.49173115E-07       *                     1_GWF-(3,1523)
 Package                           56                 0.14183910                     1_GWF-SFR-(206)-inflow
 Model                             57          1 -1.30778204E-07       *                     1_GWF-(3,1528)
 Package                           57                 0.38083755                     1_GWF-SFR-(206)-inflow
 Model                             58          1 -5.28234011E-07       *                     1_GWF-(3,1525)
 Package                           58             4.46850534E-02                     1_GWF-SFR-(206)-inflow
 Model                             59          1 -8.02702687E-08       *                     1_GWF-(3,1526)
 Package                           59                 0.39710108                     1_GWF-SFR-(206)-inflow
 Model                             60          1 -7.40629986E-07       *                     1_GWF-(3,1525)
 Package                           60             3.88737796E-02                     1_GWF-SFR-(206)-inflow
 Model                             61          1 -4.39690382E-08       *                     1_GWF-(3,1526)
 Package                           61                 0.48278194                     1_GWF-SFR-(206)-inflow
 Model                             62          1 -6.57133029E-07       *                     1_GWF-(3,1528)
 Package                           62             5.43660146E-02                     1_GWF-SFR-(206)-inflow
 Model                             63          1 -2.77241554E-08       *                     1_GWF-(3,1241)
 Package                           63                 0.42060280                     1_GWF-SFR-(206)-inflow
 Model                             64          1 -1.99079153E-07       *                     1_GWF-(3,1420)
 Package                           64             5.19636138E-02                     1_GWF-SFR-(206)-inflow
 Model                             65          1  4.97467454E-08       *                       1_GWF-(3,15)
 Package                           65                 0.10624363                     1_GWF-SFR-(206)-inflow
 Model                             66          1 -1.54816917E-07       *                     1_GWF-(3,1526)
 Package                           66             4.58193520E-02                     1_GWF-SFR-(206)-inflow
 Model                             67          1 -2.09387849E-08       *                     1_GWF-(1,1517)
 Package                           67                 0.12443315                     1_GWF-SFR-(206)-inflow
 Model                             68          1 -1.78142983E-07       *                     1_GWF-(3,1525)
 Package                           68             1.43801698E-03       *              1_GWF-SFR-(70)-inflow
 ----------------------------------------------------------------------------------------------------------


 68 CALLS TO NUMERICAL SOLUTION IN TIME STEP 2 STRESS PERIOD 2
 94 TOTAL ITERATIONS

 OUTER ITERATION SUMMARY
 ----------------------------------------------------------------------------------------------------------
                                OUTER      INNER                    STEP   MAXIMUM CHANGE MODEL-(CELLID) OR
 OUTER ITERATION STEP       ITERATION  ITERATION  MAXIMUM CHANGE SUCCESS             MODEL-PACKAGE-(NUMBER)
 ----------------------------------------------------------------------------------------------------------
 Model                              1          6  1.23725135E-02                             1_GWF-(1,2799)
 Model                              2          1 -2.22486640E-04       *                     1_GWF-(3,1737)
 Package                            2                  4687.4613                     1_GWF-SFR-(206)-inflow
 Model                              3          1 -3.87397134E-04       *                     1_GWF-(3,1736)
 Package                            3                  1275.1287                     1_GWF-SFR-(206)-inflow
 Model                              4          1 -6.22200873E-04       *                     1_GWF-(3,1622)
 Package                            4                  620.73076                     1_GWF-SFR-(206)-inflow
 Model                              5          1 -5.75325718E-04       *                     1_GWF-(3,1513)
 Package                            5                  398.34355                     1_GWF-SFR-(206)-inflow
 Model                              6          1 -2.33669364E-04       *                     1_GWF-(3,1514)
 Package                            6                  576.85948                     1_GWF-SFR-(206)-inflow
 Model                              7          1 -7.06789068E-04       *                     1_GWF-(3,1417)
 Package                            7                  68.331361                     1_GWF-SFR-(206)-inflow
 Model                              8          1 -7.97487405E-05       *                     1_GWF-(3,1421)
 Package                            8                  669.94286                     1_GWF-SFR-(206)-inflow
 Model                              9          1 -8.92088332E-04       *                     1_GWF-(3,1421)
 Package                            9                 -15.173761                     1_GWF-SFR-(217)-inflow
 Model                             10          1 -4.48104727E-05       *                     1_GWF-(1,1524)
 Package                           10                  360.64437                     1_GWF-SFR-(206)-inflow
 Model                             11          1 -1.63033853E-04       *                     1_GWF-(3,1525)
 Package                           11                  196.10792                     1_GWF-SFR-(206)-inflow
 Model                             12          1 -1.10722900E-04       *                     1_GWF-(3,1526)
 Package                           12                  160.75655                     1_GWF-SFR-(206)-inflow
 Model                             13          1 -2.34118707E-04       *                     1_GWF-(3,1525)
 Package                           13                  10.436493                     1_GWF-SFR-(206)-inflow
 Model                             14          1 -4.09720712E-05       *                     1_GWF-(3,1428)
 Package                           14                  226.25804                     1_GWF-SFR-(206)-inflow
 Model                             15          1 -2.28686402E-04       *                     1_GWF-(3,1525)
 Package                           15                 -31.250068                     1_GWF-SFR-(206)-inflow
 Model                             16          1 -3.18859773E-05       *                     1_GWF-(3,1525)
 Package                           16                  82.459807                     1_GWF-SFR-(206)-inflow
 Model                             17          1 -2.12455158E-04       *                     1_GWF-(3,1525)
 Package                           17                  48.174025                     1_GWF-SFR-(206)-inflow
 Model                             18          1 -2.46326983E-05       *                     1_GWF-(3,1525)
 Package                           18                  111.48294                     1_GWF-SFR-(206)-inflow
 Model                             19          1 -1.44431747E-04       *                     1_GWF-(3,1525)
 Package                           19                  18.320780                     1_GWF-SFR-(206)-inflow
 Model                             20          1 -1.59818303E-05       *                     1_GWF-(1,1525)
 Package                           20                  80.638496                     1_GWF-SFR-(206)-inflow
 Model                             21          1 -1.37232388E-04       *                     1_GWF-(3,1525)
 Package                           21                  9.7583721                     1_GWF-SFR-(206)-inflow
 Model                             22          1 -1.01291233E-05       *                     1_GWF-(3,1629)
 Package                           22                  70.729293                     1_GWF-SFR-(206)-inflow
 Model                             23          1 -9.96529552E-05       *                     1_GWF-(3,1525)
 Package                           23                  9.1136682                     1_GWF-SFR-(206)-inflow
 Model                             24          1 -7.36149781E-06       *                     1_GWF-(1,1527)
 Package                           24                  60.927236                     1_GWF-SFR-(206)-inflow
 Model                             25          1 -7.73121866E-05       *                     1_GWF-(1,1528)
 Package                           25                  4.1971228                     1_GWF-SFR-(217)-inflow
 Model                             26          1  1.03743693E-05       *                       1_GWF-(3,15)
 Package                           26                  31.319069                     1_GWF-SFR-(206)-inflow
 Model                             27          1 -1.58116461E-05       *                     1_GWF-(3,1524)
 Package                           27                  10.157946                     1_GWF-SFR-(206)-inflow
 Model                             28          1 -8.95753308E-06       *                     1_GWF-(1,1527)
 Package                           28                  16.148765                     1_GWF-SFR-(206)-inflow
 Model                             29          1 -1.59092690E-05       *                     1_GWF-(3,1525)
 Package                           29                  1.7241087                     1_GWF-SFR-(217)-inflow
 Model                             30          1 -4.65984922E-06       *                     1_GWF-(1,1526)
 Package                           30                  11.378664                     1_GWF-SFR-(206)-inflow
 Model                             31          1 -1.83671478E-05       *                     1_GWF-(3,1525)
 Package                           31                  1.9206744                     1_GWF-SFR-(217)-inflow
 Model                             32          1 -3.05001029E-06       *                     1_GWF-(3,1525)
 Package                           32                  10.711120                     1_GWF-SFR-(206)-inflow
 Model                             33          1 -2.01991002E-05       *                     1_GWF-(3,1525)
 Package                           33                  2.0562533                     1_GWF-SFR-(206)-inflow
 Model                             34          1 -1.97438027E-06       *                     1_GWF-(1,1525)
 Package                           34                  11.781226                     1_GWF-SFR-(206)-inflow
 Model                             35          1 -2.27092577E-05       *                     1_GWF-(3,1528)
 Package                           35                  1.7873398                     1_GWF-SFR-(206)-inflow
 Model                             36          1 -1.11074854E-06       *                     1_GWF-(1,1422)
 Package                           36                  11.853701                     1_GWF-SFR-(206)-inflow
 Model                             37          1 -1.14189091E-05       *                     1_GWF-(3,1525)
 Package                           37                  2.1726110                     1_GWF-SFR-(206)-inflow
 Model                             38          1 -1.17339289E-06       *                     1_GWF-(1,1527)
 Package                           38                  7.4946167                     1_GWF-SFR-(206)-inflow
 Model                             39          1 -7.51531553E-06       *                     1_GWF-(1,1527)
 Package                           39                 0.73916869                     1_GWF-SFR-(206)-inflow
 Model                             40          1  1.67227086E-06       *                       1_GWF-(3,15)
 Package                           40                  3.4202856                     1_GWF-SFR-(206)-inflow
 Model                             41          1 -2.79915631E-06       *                     1_GWF-(3,1518)
 Package                           41                  1.2857521                     1_GWF-SFR-(206)-inflow
 Model                             42          1 -8.36574401E-07       *                     1_GWF-(3,1527)
 Package                           42                  2.3732655                     1_GWF-SFR-(206)-inflow
 Model                             43          1 -2.95262774E-06       *                     1_GWF-(3,1528)
 Package                           43                 0.15213405                     1_GWF-SFR-(206)-inflow
 Model                             44          1 -5.03699539E-07       *                     1_GWF-(1,1518)
 Package                           44                  1.8645610                     1_GWF-SFR-(206)-inflow
 Model                             45          1 -3.54749949E-06       *                     1_GWF-(3,1525)
 Package                           45                 0.27792968                     1_GWF-SFR-(206)-inflow
 Model                             46          1 -3.15711560E-07       *                     1_GWF-(3,1527)
 Package                           46                  2.2893980                     1_GWF-SFR-(206)-inflow
 Model                             47          1 -3.82718090E-06       *                     1_GWF-(3,1528)
 Package                           47                 0.20699347                     1_GWF-SFR-(206)-inflow
 Model                             48          1  2.65306426E-07       *                       1_GWF-(3,15)
 Package                           48                  1.9922370                     1_GWF-SFR-(206)-inflow
 Model                             49          1 -9.66376234E-07       *                     1_GWF-(3,1422)
 Package                           49                 0.38865456                     1_GWF-SFR-(206)-inflow
 Model                             50          1 -3.59622135E-07       *                     1_GWF-(3,1530)
 Package                           50                 0.82444189                     1_GWF-SFR-(206)-inflow
 Model                             51          1 -1.02499880E-06       *                     1_GWF-(3,1525)
 Package                           51             9.61100950E-02                     1_GWF-SFR-(217)-inflow
 Model                             52          1 -1.48562009E-07       *                     1_GWF-(3,1527)
 Package                           52                 0.68018588                     1_GWF-SFR-(206)-inflow
 Model                             53          1 -1.12017923E-06       *                     1_GWF-(3,1526)
 Package                           53                 0.10961006                     1_GWF-SFR-(206)-inflow
 Model                             54          1 -9.50229264E-08       *                     1_GWF-(1,1741)
 Package                           54                 0.57866270                     1_GWF-SFR-(206)-inflow
 Model                             55          1 -6.51378826E-07       *                     1_GWF-(3,1518)
 Package                           55                 0.13794894                     1_GWF-SFR-(206)-inflow
 Model                             56          1 -9.45492218E-08       *                     1_GWF-(3,1428)
 Package                           56                 0.49489759                     1_GWF-SFR-(206)-inflow
 Model                             57          1 -5.34178128E-07       *                     1_GWF-(3,1526)
 Package                           57             3.92349697E-02                     1_GWF-SFR-(217)-inflow
 Model                             58          1  8.11970438E-08       *                       1_GWF-(3,15)
 Package                           58                 0.25011572                     1_GWF-SFR-(206)-inflow
 Model                             59          1 -2.49708421E-07       *                     1_GWF-(3,1421)
 Package                           59             8.71318131E-02                     1_GWF-SFR-(206)-inflow
 Model                             60          1 -7.08824075E-08       *                     1_GWF-(3,1428)
 Package                           60                 0.19966418                     1_GWF-SFR-(206)-inflow
 Model                             61          1 -2.34882464E-07       *                     1_GWF-(3,1526)
 Package                           61             2.69305649E-02                     1_GWF-SFR-(217)-inflow
 Model                             62          1 -4.32355876E-08       *                     1_GWF-(1,1518)
 Package                           62                 0.13647636                     1_GWF-SFR-(206)-inflow
 Model                             63          1 -2.46074904E-07       *                     1_GWF-(3,1525)
 Package                           63             3.54765250E-02                     1_GWF-SFR-(206)-inflow
 Model                             64          1 -2.95816278E-08       *                     1_GWF-(3,1428)
 Package                           64                 0.15819985                     1_GWF-SFR-(206)-inflow
 Model                             65          1 -2.92361733E-07       *                     1_GWF-(3,1526)
 Package                           65             2.47522865E-02                     1_GWF-SFR-(206)-inflow
 Model                             66          1 -1.78813480E-08       *                     1_GWF-(1,1517)
 Package                           66                 0.15837600                     1_GWF-SFR-(206)-inflow
 Model                             67          1 -1.24264460E-07       *                     1_GWF-(3,1421)
 Package                           67             2.97690683E-02                     1_GWF-SFR-(206)-inflow
 Model                             68          1 -2.42883686E-08       *                     1_GWF-(3,1428)
 Package                           68             9.49415200E-02                     1_GWF-SFR-(206)-inflow
 Model                             69          1 -1.07619059E-07       *                     1_GWF-(3,1527)
 Package                           69             9.59603364E-03       *             1_GWF-SFR-(217)-inflow
 ----------------------------------------------------------------------------------------------------------


 69 CALLS TO NUMERICAL SOLUTION IN TIME STEP 3 STRESS PERIOD 2
 74 TOTAL ITERATIONS

 OUTER ITERATION SUMMARY
 ----------------------------------------------------------------------------------------------------------
                                OUTER      INNER                    STEP   MAXIMUM CHANGE MODEL-(CELLID) OR
 OUTER ITERATION STEP       ITERATION  ITERATION  MAXIMUM CHANGE SUCCESS             MODEL-PACKAGE-(NUMBER)
 ----------------------------------------------------------------------------------------------------------
 Model                              1         25      0.17022837                              1_GWF-(1,342)
 Model                              2          2  4.33871747E-03       *                       1_GWF-(1,34)
 Package                            2                 -92272.014                     1_GWF-SFR-(206)-inflow
 Model                              3          2  1.73720927E-03       *                       1_GWF-(1,93)
 Package                            3                 -37674.871                     1_GWF-SFR-(206)-inflow
 Model                              4          1  6.78258439E-04       *                       1_GWF-(1,96)
 Package                            4                 -17440.618                     1_GWF-SFR-(206)-inflow
 Model                              5          1  4.88818843E-04       *                      1_GWF-(2,132)
 Package                            5                 -6094.0854                     1_GWF-SFR-(206)-inflow
 Model                              6          1  6.05724831E-04       *                      1_GWF-(3,132)
 Package                            6                 -3310.9199                     1_GWF-SFR-(206)-inflow
 Model                              7          1  5.25148715E-04       *                      1_GWF-(3,104)
 Package                            7                 -2497.5316                     1_GWF-SFR-(206)-inflow
 Model                              8          1  4.68202429E-04       *                       1_GWF-(3,75)
 Package                            8                 -1928.6200                     1_GWF-SFR-(206)-inflow
 Model                              9          1  3.84072547E-04       *                      1_GWF-(3,108)
 Package                            9                 -1631.8847                     1_GWF-SFR-(206)-inflow
 Model                             10          1  3.57303102E-04       *                      1_GWF-(3,874)
 Package                           10                 -1274.7446                     1_GWF-SFR-(206)-inflow
 Model                             11          1  3.02196766E-04       *                      1_GWF-(3,792)
 Package                           11                 -1110.0686                     1_GWF-SFR-(206)-inflow
 Model                             12          1  2.98554406E-04       *                      1_GWF-(3,710)
 Package                           12                 -877.69967                     1_GWF-SFR-(206)-inflow
 Model                             13          1  2.43217287E-04       *                      1_GWF-(3,711)
 Package                           13                 -792.25172                     1_GWF-SFR-(206)-inflow
 Model                             14          1  2.47376836E-04       *                      1_GWF-(3,712)
 Package                           14                 -619.93118                     1_GWF-SFR-(206)-inflow
 Model                             15          1  1.86158510E-04       *                      1_GWF-(3,714)
 Package                           15                 -588.57602                     1_GWF-SFR-(206)-inflow
 Model                             16          1  2.07600847E-04       *                     1_GWF-(3,1276)
 Package                           16                 -437.60199                     1_GWF-SFR-(206)-inflow
 Model                             17          1  1.45589057E-04       *                     1_GWF-(3,1275)
 Package                           17                 -454.86554                     1_GWF-SFR-(206)-inflow
 Model                             18          1  2.00183946E-04       *                     1_GWF-(3,1270)
 Package                           18                 -295.10832                     1_GWF-SFR-(206)-inflow
 Model                             19          1  9.92668516E-05       *                     1_GWF-(3,1275)
 Package                           19                 -373.82022                     1_GWF-SFR-(206)-inflow
 Model                             20          1  1.83885864E-04       *                     1_GWF-(3,1271)
 Package                           20                 -165.90799                     1_GWF-SFR-(206)-inflow
 Model                             21          1  5.18413298E-05       *                     1_GWF-(3,1275)
 Package                           21                 -311.77588                     1_GWF-SFR-(206)-inflow
 Model                             22          1  1.84657164E-04       *                     1_GWF-(3,1271)
 Package                           22                 -64.954297                     1_GWF-SFR-(206)-inflow
 Model                             23          1  3.84373235E-05       *                       1_GWF-(3,12)
 Package                           23                 -274.26573                     1_GWF-SFR-(206)-inflow
 Model                             24          1  2.21463136E-04       *                     1_GWF-(3,1421)
 Package                           24                 -42.992875                     1_GWF-SFR-(206)-inflow
 Model                             25          1  2.11256141E-05       *                       1_GWF-(3,12)
 Package                           25                 -294.10559                     1_GWF-SFR-(206)-inflow
 Model                             26          1  1.33003212E-04       *                     1_GWF-(3,1524)
 Package                           26                 -32.192700                     1_GWF-SFR-(206)-inflow
 Model                             27          1  1.24547097E-05       *                     1_GWF-(3,1525)
 Package                           27                 -157.42376                     1_GWF-SFR-(206)-inflow
 Model                             28          1  1.48388101E-04       *                     1_GWF-(3,1525)
 Package                           28                 -17.842508                     1_GWF-SFR-(217)-inflow
 Model                             29          1  5.91973253E-06       *                       1_GWF-(3,11)
 Package                           29                 -142.40288                     1_GWF-SFR-(206)-inflow
 Model                             30          1  4.37018559E-05       *                     1_GWF-(3,1525)
 Package                           30                 -21.353117                     1_GWF-SFR-(206)-inflow
 Model                             31          1  8.04967149E-06       *                     1_GWF-(3,1527)
 Package                           31                 -38.246144                     1_GWF-SFR-(206)-inflow
 Model                             32          1  4.82720780E-05       *                     1_GWF-(3,1525)
 Package                           32                 -7.8964029                     1_GWF-SFR-(206)-inflow
 Model                             33          1 -3.93321156E-06       *                      1_GWF-(1,866)
 Package                           33                 -51.649973                     1_GWF-SFR-(206)-inflow
 Model                             34          1  4.68334611E-05       *                     1_GWF-(3,1528)
 Package                           34                  1.5678591                     1_GWF-SFR-(217)-inflow
 Model                             35          1  2.34973783E-06       *                      1_GWF-(3,284)
 Package                           35                 -27.608220                     1_GWF-SFR-(206)-inflow
 Model                             36          1  5.78719624E-06       *                     1_GWF-(3,1518)
 Package                           36                 -9.2740878                     1_GWF-SFR-(206)-inflow
 Model                             37          1  4.32394611E-06       *                     1_GWF-(3,1528)
 Package                           37                 -9.0295641                     1_GWF-SFR-(206)-inflow
 Model                             38          1  1.19181984E-05       *                     1_GWF-(3,1525)
 Package                           38                 -2.5080483                     1_GWF-SFR-(206)-inflow
 Model                             39          1  1.88616556E-06       *                     1_GWF-(1,1421)
 Package                           39                 -11.681906                     1_GWF-SFR-(206)-inflow
 Model                             40          1  1.33839766E-05       *                     1_GWF-(3,1525)
 Package                           40                 0.34565479                     1_GWF-SFR-(217)-inflow
 Model                             41          1  1.00702536E-06       *                     1_GWF-(1,1422)
 Package                           41                 -9.4843628                     1_GWF-SFR-(206)-inflow
 Model                             42          1  8.35262958E-06       *                     1_GWF-(3,1525)
 Package                           42                 -1.5772714                     1_GWF-SFR-(206)-inflow
 Model                             43          1  9.05830717E-07       *                     1_GWF-(1,1632)
 Package                           43                 -6.6242291                     1_GWF-SFR-(206)-inflow
 Model                             44          1  8.57599997E-06       *                     1_GWF-(3,1525)
 Package                           44                -0.94356015                     1_GWF-SFR-(206)-inflow
 Model                             45          1  6.62092475E-07       *                       1_GWF-(3,31)
 Package                           45                 -5.4656308                     1_GWF-SFR-(206)-inflow
 Model                             46          1  2.49719272E-06       *                     1_GWF-(3,1427)
 Package                           46                 -1.0160802                     1_GWF-SFR-(206)-inflow
 Model                             47          1  6.67293079E-07       *                     1_GWF-(3,1631)
 Package                           47                 -2.4024366                     1_GWF-SFR-(206)-inflow
 Model                             48          1  2.68603455E-06       *                     1_GWF-(3,1629)
 Package                           48                -0.24489579                     1_GWF-SFR-(217)-inflow
 Model                             49          1  3.34209176E-07       *                     1_GWF-(3,1428)
 Package                           49                 -1.9524686                     1_GWF-SFR-(206)-inflow
 Model                             50          1  2.26939230E-06       *                     1_GWF-(3,1526)
 Package                           50                -0.20620096                     1_GWF-SFR-(206)-inflow
 Model                             51          1  2.38592037E-07       *                     1_GWF-(3,1750)
 Package                           51                 -1.7148540                     1_GWF-SFR-(206)-inflow
 Model                             52          1  1.92787670E-06       *                     1_GWF-(3,1629)
 Package                           52                -0.16574715                     1_GWF-SFR-(206)-inflow
 Model                             53          1 -2.00574277E-07       *                       1_GWF-(3,15)
 Package                           53                 -1.2184046                     1_GWF-SFR-(206)-inflow
 Model                             54          1  8.79033422E-07       *                     1_GWF-(1,1427)
 Package                           54                -0.23532789                     1_GWF-SFR-(206)-inflow
 Model                             55          1  2.01517395E-07       *                     1_GWF-(3,1751)
 Package                           55                -0.67697322                     1_GWF-SFR-(206)-inflow
 Model                             56          1  6.64220266E-07       *                     1_GWF-(3,1528)
 Package                           56                -0.10975433                     1_GWF-SFR-(206)-inflow
 Model                             57          1  1.24507778E-07       *                     1_GWF-(1,1518)
 Package                           57                -0.44525236                     1_GWF-SFR-(206)-inflow
 Model                             58          1  6.64190850E-07       *                     1_GWF-(3,1525)
 Package                           58                -0.10396077                     1_GWF-SFR-(206)-inflow
 Model                             59          1  8.48179127E-08       *                     1_GWF-(1,1422)
 Package                           59                -0.46694576                     1_GWF-SFR-(206)-inflow
 Model                             60          1  6.58853736E-07       *                     1_GWF-(3,1632)
 Package                           60            -7.12928463E-02                     1_GWF-SFR-(206)-inflow
 Model                             61          1  6.37859898E-08       *                      1_GWF-(3,373)
 Package                           61                -0.40795464                     1_GWF-SFR-(206)-inflow
 Model                             62          1  3.54849988E-07       *                     1_GWF-(1,1526)
[...]
 Package                           63                 0.37197485                     1_GWF-SFR-(206)-inflow
 Model                             64          1 -7.19031448E-07       *                     1_GWF-(3,1525)
 Package                           64             4.91273375E-02                     1_GWF-SFR-(206)-inflow
 Model                             65          1 -3.41510145E-08       *                     1_GWF-(3,1240)
 Package                           65                 0.46638517                     1_GWF-SFR-(206)-inflow
 Model                             66          1 -4.57202418E-07       *                     1_GWF-(3,1424)
 Package                           66             3.93936475E-02                     1_GWF-SFR-(206)-inflow
 Model                             67          1 -4.79947460E-08       *                     1_GWF-(3,2107)
 Package                           67                 0.22561406                     1_GWF-SFR-(206)-inflow
 Model                             68          1 -1.04886652E-07       *                     1_GWF-(3,1528)
 Package                           68             7.14700930E-02                     1_GWF-SFR-(206)-inflow
 Model                             69          1 -4.16734451E-08       *                     1_GWF-(3,1240)
 Package                           69             9.79246361E-02                     1_GWF-SFR-(206)-inflow
 Model                             70          1 -1.64612516E-07       *                     1_GWF-(3,1629)
 Package                           70             1.21319891E-02                     1_GWF-SFR-(206)-inflow
 Model                             71          1 -1.76142976E-08       *                     1_GWF-(3,1240)
 Package                           71                 0.11253470                     1_GWF-SFR-(206)-inflow
 Model                             72          1 -1.52897940E-07       *                     1_GWF-(3,1337)
 Package                           72             1.02980117E-02                     1_GWF-SFR-(206)-inflow
 Model                             73          1 -1.49960044E-08       *                     1_GWF-(3,2301)
 Package                           73             8.06149777E-02                     1_GWF-SFR-(206)-inflow
 Model                             74          1 -4.51523761E-08       *                     1_GWF-(3,1632)
 Package                           74             1.60738355E-02                     1_GWF-SFR-(206)-inflow
 Model                             75          1 -1.89678815E-08       *                     1_GWF-(3,1240)
 Package                           75             4.21519091E-02                     1_GWF-SFR-(206)-inflow
 Model                             76          1 -5.09017184E-08       *                     1_GWF-(1,1629)
 Package                           76             4.65135648E-03       *             1_GWF-SFR-(206)-inflow
 ----------------------------------------------------------------------------------------------------------


 76 CALLS TO NUMERICAL SOLUTION IN TIME STEP 47 STRESS PERIOD 2
 92 TOTAL ITERATIONS

 OUTER ITERATION SUMMARY
 ----------------------------------------------------------------------------------------------------------
                                OUTER      INNER                    STEP   MAXIMUM CHANGE MODEL-(CELLID) OR
 OUTER ITERATION STEP       ITERATION  ITERATION  MAXIMUM CHANGE SUCCESS             MODEL-PACKAGE-(NUMBER)
 ----------------------------------------------------------------------------------------------------------
 Model                              1         14  3.53493479E-02                             1_GWF-(1,1843)
 Model                              2          2  1.19758969E-03       *                       1_GWF-(1,34)
 Package                            2                 -28393.078                     1_GWF-SFR-(206)-inflow
 Model                              3          1  4.04025548E-04       *                       1_GWF-(1,64)
 Package                            3                 -10774.841                     1_GWF-SFR-(206)-inflow
 Model                              4          1  2.02371187E-04       *                      1_GWF-(1,169)
 Package                            4                 -3820.0362                     1_GWF-SFR-(206)-inflow
 Model                              5          1  2.13622783E-04       *                      1_GWF-(3,132)
 Package                            5                 -1809.7217                     1_GWF-SFR-(206)-inflow
 Model                              6          1  2.24659775E-04       *                      1_GWF-(3,132)
 Package                            6                 -1159.3876                     1_GWF-SFR-(206)-inflow
 Model                              7          1  2.41221547E-04       *                     1_GWF-(3,1971)
 Package                            7                 -885.65395                     1_GWF-SFR-(206)-inflow
 Model                              8          1  2.51340506E-04       *                     1_GWF-(3,1826)
 Package                            8                 -722.58588                     1_GWF-SFR-(206)-inflow
 Model                              9          1  2.59678134E-04       *                     1_GWF-(3,1735)
 Package                            9                 -601.53130                     1_GWF-SFR-(206)-inflow
 Model                             10          1  2.67688835E-04       *                     1_GWF-(3,1623)
 Package                           10                 -503.46695                     1_GWF-SFR-(206)-inflow
 Model                             11          1  2.65355118E-04       *                     1_GWF-(3,1624)
 Package                           11                 -434.68313                     1_GWF-SFR-(206)-inflow
 Model                             12          1  2.68531097E-04       *                     1_GWF-(3,1516)
 Package                           12                 -370.71904                     1_GWF-SFR-(206)-inflow
 Model                             13          1  2.54602511E-04       *                     1_GWF-(3,1517)
 Package                           13                 -329.31192                     1_GWF-SFR-(206)-inflow
 Model                             14          1  2.54027625E-04       *                     1_GWF-(3,1518)
 Package                           14                 -281.63441                     1_GWF-SFR-(206)-inflow
 Model                             15          1  2.26740769E-04       *                     1_GWF-(3,1518)
 Package                           15                 -256.14559                     1_GWF-SFR-(206)-inflow
 Model                             16          1  2.27875487E-04       *                     1_GWF-(3,1518)
 Package                           16                 -215.38743                     1_GWF-SFR-(206)-inflow
 Model                             17          1  1.88109306E-04       *                     1_GWF-(3,1524)
 Package                           17                 -201.28183                     1_GWF-SFR-(206)-inflow
 Model                             18          1  1.93914433E-04       *                     1_GWF-(3,1524)
 Package                           18                 -163.64862                     1_GWF-SFR-(206)-inflow
 Model                             19          1  1.33835073E-04       *                     1_GWF-(3,1525)
 Package                           19                 -152.57170                     1_GWF-SFR-(206)-inflow
 Model                             20          1  1.16449531E-04       *                     1_GWF-(3,1525)
 Package                           20                 -118.08366                     1_GWF-SFR-(206)-inflow
 Model                             21          1  7.94379178E-05       *                     1_GWF-(3,1525)
 Package                           21                 -74.635112                     1_GWF-SFR-(206)-inflow
 Model                             22          1  8.31358367E-05       *                     1_GWF-(1,1517)
 Package                           22                 -81.468992                     1_GWF-SFR-(206)-inflow
 Model                             23          1  7.43145719E-05       *                     1_GWF-(3,1525)
 Package                           23                 -45.771148                     1_GWF-SFR-(217)-inflow
 Model                             24          1  6.06567771E-05       *                     1_GWF-(3,1526)
 Package                           24                 -72.225877                     1_GWF-SFR-(206)-inflow
 Model                             25          1  7.81160497E-05       *                     1_GWF-(1,1525)
 Package                           25                 -35.056388                     1_GWF-SFR-(217)-inflow
 Model                             26          1  4.26304014E-05       *                     1_GWF-(1,1516)
 Package                           26                 -65.091920                     1_GWF-SFR-(206)-inflow
 Model                             27          1  9.31720051E-05       *                     1_GWF-(1,1525)
 Package                           27                 -28.918775                     1_GWF-SFR-(217)-inflow
 Model                             28          1  2.86800120E-05       *                     1_GWF-(1,1417)
 Package                           28                 -65.679321                     1_GWF-SFR-(206)-inflow
 Model                             29          1  1.31042747E-04       *                     1_GWF-(3,1525)
 Package                           29                 -24.569596                     1_GWF-SFR-(217)-inflow
 Model                             30          1  1.76749110E-05       *                     1_GWF-(1,1514)
 Package                           30                 -82.481360                     1_GWF-SFR-(206)-inflow
 Model                             31          1  1.93211355E-04       *                     1_GWF-(3,1525)
 Package                           31                 -23.097935                     1_GWF-SFR-(206)-inflow
 Model                             32          1  8.67287744E-06       *                     1_GWF-(1,1527)
 Package                           32                 -117.09245                     1_GWF-SFR-(206)-inflow
 Model                             33          1  1.02017800E-04       *                     1_GWF-(3,1525)
 Package                           33                 -22.750176                     1_GWF-SFR-(206)-inflow
 Model                             34          1  7.86595609E-06       *                     1_GWF-(1,1422)
 Package                           34                 -58.893275                     1_GWF-SFR-(206)-inflow
 Model                             35          1  5.29219921E-05       *                     1_GWF-(3,1525)
 Package                           35                 -11.854377                     1_GWF-SFR-(206)-inflow
 Model                             36          1  5.67542281E-06       *                     1_GWF-(1,1422)
 Package                           36                 -42.132725                     1_GWF-SFR-(206)-inflow
 Model                             37          1  9.24150131E-05       *                     1_GWF-(3,1525)
 Package                           37                 -1.9325161                     1_GWF-SFR-(206)-inflow
 Model                             38          1 -2.52852936E-06       *                     1_GWF-(1,1197)
 Package                           38                 -53.966263                     1_GWF-SFR-(206)-inflow
 Model                             39          1  7.97320911E-06       *                     1_GWF-(3,1525)
 Package                           39                 -6.4022427                     1_GWF-SFR-(206)-inflow
 Model                             40          1  4.35985748E-06       *                     1_GWF-(3,1528)
 Package                           40                 -8.7335236                     1_GWF-SFR-(206)-inflow
 Model                             41          1  1.52918574E-05       *                     1_GWF-(2,1525)
 Package                           41                 -1.8342277                     1_GWF-SFR-(206)-inflow
 Model                             42          1  1.75027000E-06       *                     1_GWF-(1,1623)
 Package                           42                 -10.788061                     1_GWF-SFR-(206)-inflow
 Model                             43          1  1.71832378E-05       *                     1_GWF-(3,1526)
 Package                           43                 -1.6968492                     1_GWF-SFR-(206)-inflow
 Model                             44          1  1.04660649E-06       *                     1_GWF-(3,1241)
 Package                           44                 -5.4605748                     1_GWF-SFR-(206)-inflow
 Model                             45          1  2.70409166E-06       *                     1_GWF-(3,1525)
 Package                           45                 -4.7620759                     1_GWF-SFR-(206)-inflow
 Model                             46          1  2.51444280E-06       *                     1_GWF-(3,1528)
 Package                           46                 -3.2005331                     1_GWF-SFR-(206)-inflow
 Model                             47          1  4.53587026E-06       *                     1_GWF-(3,1523)
 Package                           47                -0.84405682                     1_GWF-SFR-(206)-inflow
 Model                             48          1  9.05226813E-07       *                     1_GWF-(3,1528)
 Package                           48                 -4.4682287                     1_GWF-SFR-(206)-inflow
 Model                             49          1  5.72136872E-06       *                     1_GWF-(3,1523)
 Package                           49                 0.32943126                     1_GWF-SFR-(217)-inflow
 Model                             50          1  5.26058813E-07       *                     1_GWF-(3,1632)
 Package                           50                 -3.0046383                     1_GWF-SFR-(206)-inflow
 Model                             51          1  3.93994040E-06       *                     1_GWF-(3,1525)
 Package                           51                -0.86748719                     1_GWF-SFR-(206)-inflow
 Model                             52          1  4.89960513E-07       *                     1_GWF-(3,1629)
 Package                           52                 -2.7474351                     1_GWF-SFR-(206)-inflow
 Model                             53          1  3.94730225E-06       *                     1_GWF-(3,1526)
 Package                           53                -0.29509466                     1_GWF-SFR-(206)-inflow
 Model                             54          1  2.43772263E-07       *                     1_GWF-(3,1632)
 Package                           54                 -2.5111581                     1_GWF-SFR-(206)-inflow
 Model                             55          1  2.54802737E-06       *                     1_GWF-(3,1525)
 Package                           55                -0.21673189                     1_GWF-SFR-(206)-inflow
 Model                             56          1 -2.62132630E-07       *                     1_GWF-(3,1689)
 Package                           56                 -1.7305670                     1_GWF-SFR-(206)-inflow
 Model                             57          1  1.07750239E-06       *                     1_GWF-(3,1525)
 Package                           57                -0.17598645                     1_GWF-SFR-(217)-inflow
 Model                             58          1  3.57731977E-07       *                     1_GWF-(3,1689)
 Package                           58                -0.53091753                     1_GWF-SFR-(206)-inflow
 Model                             59          1  6.01786894E-07       *                     1_GWF-(3,1526)
 Package                           59                -0.25209820                     1_GWF-SFR-(206)-inflow
 Model                             60          1  1.54054334E-07       *                     1_GWF-(3,1629)
 Package                           60                -0.48434603                     1_GWF-SFR-(206)-inflow
 Model                             61          1  6.86663924E-07       *                     1_GWF-(3,1525)
 Package                           61            -4.64931358E-02                     1_GWF-SFR-(217)-inflow
 Model                             62          1  8.90215404E-08       *                     1_GWF-(3,1420)
 Package                           62                -0.49239436                     1_GWF-SFR-(206)-inflow
 Model                             63          1  1.01278451E-06       *                     1_GWF-(3,1526)
 Package                           63            -5.32514630E-02                     1_GWF-SFR-(217)-inflow
 Model                             64          1  4.70804764E-08       *                     1_GWF-(3,1634)
 Package                           64                -0.58752442                     1_GWF-SFR-(206)-inflow
 Model                             65          1  4.44239305E-07       *                     1_GWF-(3,1525)
 Package                           65            -7.90385985E-02                     1_GWF-SFR-(206)-inflow
 Model                             66          1  4.57427802E-08       *                     1_GWF-(3,1244)
 Package                           66                -0.32050393                     1_GWF-SFR-(206)-inflow
 Model                             67          1  4.34265701E-07       *                     1_GWF-(3,1425)
 Package                           67            -3.50840049E-02                     1_GWF-SFR-(206)-inflow
 Model                             68          1  9.18346075E-08       *                      1_GWF-(3,380)
 Package                           68                -0.20900677                     1_GWF-SFR-(206)-inflow
 Model                             69          1  7.48533466E-08       *                     1_GWF-(3,1529)
 Package                           69            -6.16765469E-02                     1_GWF-SFR-(206)-inflow
 Model                             70          1  5.47047136E-08       *                     1_GWF-(3,1337)
 Package                           70            -8.23852355E-02                     1_GWF-SFR-(206)-inflow
 Model                             71          1  8.13672045E-08       *                     1_GWF-(3,1525)
 Package                           71            -2.04572539E-02                     1_GWF-SFR-(206)-inflow
 Model                             72          1  2.65863207E-08       *                     1_GWF-(3,1429)
 Package                           72            -6.87852974E-02                     1_GWF-SFR-(206)-inflow
 Model                             73          1  9.56628696E-08       *                     1_GWF-(3,1525)
 Package                           73            -6.62979182E-03       *             1_GWF-SFR-(206)-inflow
 ----------------------------------------------------------------------------------------------------------


 73 CALLS TO NUMERICAL SOLUTION IN TIME STEP 48 STRESS PERIOD 2
 87 TOTAL ITERATIONS

 MEMORY MANAGER TOTAL STORAGE BY DATA TYPE, IN MEGABYTES
 -------------------------------
                    ALLOCATED   
 DATA TYPE           MEMORY     
 -------------------------------
 Character        0.13652900    
 Logical          4.40000000E-05
 Integer          2.0449720     
 Real             4.8282880     
 -------------------------------
 Total            7.0098330     
 -------------------------------


 
 Run end date and time (yyyy/mm/dd hh:mm:ss): 2021/12/09  9:57:49
 Elapsed run time: 18.663 Seconds
 Normal termination of simulation.
