                                   MODFLOW 6
                U.S. GEOLOGICAL SURVEY MODULAR HYDROLOGIC MODEL
                            VERSION 6.2.1 02/18/2021

   MODFLOW 6 compiled Feb 18 2021 21:14:51 with IFORT compiler (ver. 19.10.3)

This software has been approved for release by the U.S. Geological 
Survey (USGS). Although the software has been subjected to rigorous 
review, the USGS reserves the right to update the software as needed 
pursuant to further analysis and review. No warranty, expressed or 
implied, is made by the USGS or the U.S. Government as to the 
functionality of the software and related material nor shall the 
fact of release constitute any such warranty. Furthermore, the 
software is released on condition that neither the USGS nor the U.S. 
Government shall be held liable for any damages resulting from its 
authorized or unauthorized use. Also refer to the USGS Water 
Resources Software User Rights Notice for complete use, copyright, 
and distribution information.


System command used to initiate simulation:
..\bins\win\mf6

MODFLOW was compiled using uniform precision.

Real Variables
  KIND: 8
  TINY (smallest non-zero value):    2.225074-308
  HUGE (largest value):    1.797693+308
  PRECISION: 15
  BIT SIZE: 64

Integer Variables
  KIND: 4
  HUGE (largest value): 2147483647
  BIT SIZE: 32

Long Integer Variables
  KIND: 8
  HUGE (largest value): 9223372036854775807
  BIT SIZE: 64

Logical Variables
  KIND: 4
  BIT SIZE: 32
 

 OPENED mfsim.nam
 FILE TYPE:NAM   UNIT 1001   STATUS:OLD                 
 FORMAT:FORMATTED              ACCESS:SEQUENTIAL          
 ACTION:READ                

 # File generated by Flopy version 3.3.5 on 11/03/2021 at 15:11:00.

 READING SIMULATION OPTIONS
 END OF SIMULATION OPTIONS

 READING SIMULATION TIMING

 OPENED experimental.tdis
 FILE TYPE:TDIS   UNIT 1002   STATUS:OLD                 
 FORMAT:FORMATTED              ACCESS:SEQUENTIAL          
 ACTION:READ                


 TDIS -- TEMPORAL DISCRETIZATION PACKAGE,
 VERSION 1 : 11/13/2014 - INPUT READ FROM UNIT 1002
 # File generated by Flopy version 3.3.5 on 11/03/2021 at 15:11:00.
 PROCESSING TDIS OPTIONS
    SIMULATION TIME UNIT IS DAYS
 END OF TDIS OPTIONS
 PROCESSING TDIS DIMENSIONS
    2 STRESS PERIOD(S) IN SIMULATION
 END OF TDIS DIMENSIONS
 PROCESSING TDIS PERIODDATA


 STRESS PERIOD     LENGTH       TIME STEPS     MULTIPLIER FOR DELT
 ----------------------------------------------------------------------------
        1         1.000000          1                    1.000
        2         1460.000         48                    1.000
 END OF TDIS PERIODDATA
 END OF SIMULATION TIMING

 READING SIMULATION MODELS
    GWF6 model EXPERIMENTAL will be created as model 1
 END OF SIMULATION MODELS

 READING SIMULATION EXCHANGES
 END OF SIMULATION EXCHANGES

 READING SOLUTIONGROUP

 Creating solution: SLN_1           

 OPENED experimental.ims
 FILE TYPE:IMS   UNIT 1014   STATUS:OLD                 
 FORMAT:FORMATTED              ACCESS:SEQUENTIAL          
 ACTION:READ                

 END OF SIMULATION SOLUTIONGROUP

 IMS -- ITERATIVE MODEL SOLUTION PACKAGE, VERSION 6, 4/28/2017
         INPUT READ FROM UNIT 1014
 # File generated by Flopy version 3.3.5 on 11/03/2021 at 15:11:00.

 PROCESSING IMS OPTIONS
 SIMPLE OPTION:
 DEFAULT SOLVER INPUT VALUES FOR FAST SOLUTIONS
 END OF IMS OPTIONS

 PROCESSING IMS NONLINEAR
 END OF IMS NONLINEAR DATA
 ***UNDER-RELAXATION WILL NOT BE USED***
 
 ***IMS LINEAR SOLVER WILL BE USED***

 IMSLINEAR -- UNSTRUCTURED LINEAR SOLUTION PACKAGE, VERSION 8, 04/28/2017

 PROCESSING LINEAR DATA
 END OF LINEAR DATA
 
 OUTER ITERATION CONVERGENCE CRITERION    (DVCLOSE) =    0.100000E-01
 MAXIMUM NUMBER OF OUTER ITERATIONS        (MXITER) = 750
 SOLVER PRINTOUT INDEX                     (IPRIMS) = 1
 NONLINEAR ITERATION METHOD            (NONLINMETH) = 0
 LINEAR SOLUTION METHOD                   (LINMETH) = 1

       SOLUTION BY THE BICONJUGATE-GRADIENT STABILIZED METHOD
 ------------------------------------------------------------------
 MAXIMUM OF 750 CALLS OF SOLUTION ROUTINE
 MAXIMUM OF 50 INTERNAL ITERATIONS PER CALL TO SOLUTION ROUTINE
 LINEAR ACCELERATION METHOD            = BCGS      
 MATRIX PRECONDITIONING TYPE           = INCOMPLETE LU       
 MATRIX SCALING APPROACH               = NO SCALING          
 MATRIX REORDERING APPROACH            = ORIGINAL ORDERING        
 NUMBER OF ORTHOGONALIZATIONS          = 0
 HEAD CHANGE CRITERION FOR CLOSURE     =    0.10000E-02
 RESIDUAL CHANGE CRITERION FOR CLOSURE =    0.10000E+00
 RESIDUAL CONVERGENCE OPTION           = 0
 RESIDUAL CONVERGENCE NORM             = INFINITY NORM   
 RELAXATION FACTOR                     =    0.00000E+00



1
                            STRESS PERIOD NO.    1, LENGTH =   1.000000    
                            -----------------------------------------------

                              NUMBER OF TIME STEPS =     1

                               MULTIPLIER FOR DELT =     1.000

                            INITIAL TIME STEP SIZE =   1.000000    

 OUTER ITERATION SUMMARY
 ----------------------------------------------------------------------------------------------------------
                                OUTER      INNER                    STEP   MAXIMUM CHANGE MODEL-(CELLID) OR
 OUTER ITERATION STEP       ITERATION  ITERATION  MAXIMUM CHANGE SUCCESS             MODEL-PACKAGE-(NUMBER)
 ----------------------------------------------------------------------------------------------------------
 Model                              1         43      -4.0648443                             1_GWF-(1,1157)
 Model                              2         39      -1.3042390                             1_GWF-(1,2739)
 Model                              3         35     -0.93057915                             1_GWF-(1,2595)
 Model                              4         34     -0.82256326                             1_GWF-(1,2181)
 Model                              5         33     -0.24020052                             1_GWF-(1,1745)
 Model                              6         16 -6.21848326E-02                             1_GWF-(1,1653)
 Model                              7         26     -0.17774292                             1_GWF-(1,1429)
 Model                              8         31     -0.17010020                             1_GWF-(1,1614)
 Model                              9         30     -0.19147850                              1_GWF-(2,332)
 Model                             10         31     -0.14116401                             1_GWF-(1,1633)
 Model                             11          9 -2.91707877E-02                             1_GWF-(1,1642)
 Model                             12          1 -7.59601454E-04       *                     1_GWF-(1,2428)
 Package                           12                  130.34265                     1_GWF-SFR-(217)-inflow
 Model                             13          1 -2.38310825E-04       *                       1_GWF-(1,63)
 Package                           13                  25.297521                     1_GWF-SFR-(217)-inflow
 Model                             14          1 -1.88886656E-04       *                       1_GWF-(2,67)
 Package                           14                  8.5754872                     1_GWF-SFR-(257)-inflow
 Model                             15          1 -2.48005664E-04       *                     1_GWF-(1,2882)
 Package                           15                  4.6828895                     1_GWF-SFR-(257)-inflow
 Model                             16          1 -3.12121318E-04       *                     1_GWF-(1,2886)
 Package                           16                  3.4939376                     1_GWF-SFR-(257)-inflow
 Model                             17          1 -5.19421362E-04       *                     1_GWF-(1,2886)
 Package                           17                  2.4409642                     1_GWF-SFR-(217)-inflow
 Model                             18          1 -4.23509608E-04       *                     1_GWF-(1,2886)
 Package                           18                  2.9721552                     1_GWF-SFR-(217)-inflow
 Model                             19          1 -6.82899397E-04       *                     1_GWF-(1,2886)
 Package                           19                  2.2324926                     1_GWF-SFR-(217)-inflow
 Model                             20          1 -2.88951262E-04       *                     1_GWF-(1,2886)
 Package                           20                  2.6163009                     1_GWF-SFR-(206)-inflow
 Model                             21          1 -1.78776296E-04       *                     1_GWF-(1,2729)
 Package                           21                  2.0554657                     1_GWF-SFR-(217)-inflow
 Model                             22          1 -3.84533376E-04       *                     1_GWF-(1,2889)
 Package                           22                 0.17428317                     1_GWF-SFR-(266)-inflow
 Model                             23          1 -1.38597942E-04       *                      1_GWF-(1,409)
 Package                           23                  2.5913946                     1_GWF-SFR-(217)-inflow
 Model                             24          1 -8.93157768E-04       *                     1_GWF-(2,3093)
 Package                           24                -0.30594547                     1_GWF-SFR-(217)-inflow
 Model                             25          1  2.10765269E-04       *                      1_GWF-(3,266)
 Package                           25                  5.6108528                     1_GWF-SFR-(217)-inflow
 Model                             26          1 -6.31964392E-04       *                     1_GWF-(3,2854)
 Package                           26                 -1.2164982                     1_GWF-SFR-(217)-inflow
 Model                             27          1 -1.28169484E-04       *                     1_GWF-(1,2428)
 Package                           27                  1.7450264                     1_GWF-SFR-(206)-inflow
 Model                             28          1 -3.69204191E-04       *                     1_GWF-(3,2783)
 Package                           28                  1.0542307                     1_GWF-SFR-(217)-inflow
 Model                             29          1  1.10202121E-04       *                      1_GWF-(2,209)
 Package                           29                 0.58004634                     1_GWF-SFR-(206)-inflow
 Model                             30          1 -3.26862042E-04       *                     1_GWF-(3,2783)
 Package                           30                  1.1729586                     1_GWF-SFR-(217)-inflow
 Model                             31          1 -9.37983010E-05       *                     1_GWF-(3,2704)
 Package                           31                 0.48519291                     1_GWF-SFR-(206)-inflow
 Model                             32          1 -3.13249504E-04       *                     1_GWF-(3,2783)
 Package                           32                 0.99106360                     1_GWF-SFR-(217)-inflow
 Model                             33          1 -8.33932116E-05       *                     1_GWF-(3,2704)
 Package                           33                 0.54574300                     1_GWF-SFR-(206)-inflow
 Model                             34          1 -3.96385530E-04       *                     1_GWF-(3,2783)
 Package                           34                 0.73997726                     1_GWF-SFR-(217)-inflow
 Model                             35          1  1.05485254E-04       *                      1_GWF-(3,188)
 Package                           35                 0.86384331                     1_GWF-SFR-(206)-inflow
 Model                             36          1 -8.79438121E-04       *                     1_GWF-(3,2704)
 Package                           36                 0.54898809                     1_GWF-SFR-(217)-inflow
 Model                             37          1  1.66221320E-04       *                      1_GWF-(3,188)
 Package                           37                  2.2070325                     1_GWF-SFR-(206)-inflow
 Model                             38          3 -7.77556978E-03       *                     1_GWF-(3,2704)
 Package                           38                 0.49093203                     1_GWF-SFR-(217)-inflow
 Model                             39          1 -6.02194374E-04       *                      1_GWF-(1,409)
 Package                           39                  16.736058                     1_GWF-SFR-(206)-inflow
 Model                             40          1 -1.26944793E-04       *                      1_GWF-(1,409)
 Package                           40                  3.4228917                     1_GWF-SFR-(217)-inflow
 Model                             41          1 -3.02566054E-05       *                      1_GWF-(1,409)
 Package                           41                 0.88857909                     1_GWF-SFR-(217)-inflow
 Model                             42          1 -1.30772930E-05       *                     1_GWF-(3,2561)
 Package                           42                 0.32035042                     1_GWF-SFR-(257)-inflow
 Model                             43          1 -2.24513230E-05       *                     1_GWF-(3,2561)
 Package                           43                 0.18859032                     1_GWF-SFR-(257)-inflow
 Model                             44          1 -4.52050186E-05       *                     1_GWF-(3,2561)
 Package                           44                 0.10754958                     1_GWF-SFR-(257)-inflow
 Model                             45          1 -6.98556918E-05       *                     1_GWF-(3,2561)
 Package                           45            -5.29579960E-02                     1_GWF-SFR-(206)-inflow
 Model                             46          1 -1.64263615E-05       *                     1_GWF-(3,2565)
 Package                           46                -0.13588825                     1_GWF-SFR-(217)-inflow
 Model                             47          1 -1.54377977E-05       *                     1_GWF-(3,2403)
 Package                           47            -3.01409335E-02                     1_GWF-SFR-(206)-inflow
 Model                             48          1 -1.08185448E-05       *                     1_GWF-(3,2561)
 Package                           48            -7.88816950E-02                     1_GWF-SFR-(217)-inflow
 Model                             49          1 -1.68456466E-05       *                     1_GWF-(3,2561)
 Package                           49             2.83134596E-02                     1_GWF-SFR-(217)-inflow
 Model                             50          1 -8.81316515E-06       *                     1_GWF-(3,2561)
 Package                           50            -8.27886964E-02                     1_GWF-SFR-(217)-inflow
 Model                             51          1 -1.72325177E-05       *                     1_GWF-(3,2564)
 Package                           51             2.73374891E-02                     1_GWF-SFR-(217)-inflow
 Model                             52          1 -7.51340400E-06       *                     1_GWF-(3,2561)
 Package                           52            -6.68836756E-02                     1_GWF-SFR-(217)-inflow
 Model                             53          1 -1.81317999E-05       *                     1_GWF-(3,2564)
 Package                           53             2.08065026E-02                     1_GWF-SFR-(217)-inflow
 Model                             54          1 -6.19746160E-06       *                     1_GWF-(3,2561)
 Package                           54            -5.60692564E-02                     1_GWF-SFR-(217)-inflow
 Model                             55          1 -2.01174829E-05       *                     1_GWF-(3,2561)
 Package                           55             1.62509888E-02                     1_GWF-SFR-(217)-inflow
 Model                             56          1 -4.93924907E-06       *                     1_GWF-(3,2561)
 Package                           56            -4.72270943E-02                     1_GWF-SFR-(217)-inflow
 Model                             57          1 -2.53008663E-05       *                     1_GWF-(3,2561)
 Package                           57             1.19066380E-02                     1_GWF-SFR-(217)-inflow
 Model                             58          1  4.23752311E-06       *                      1_GWF-(3,188)
 Package                           58            -4.08067943E-02                     1_GWF-SFR-(217)-inflow
 Model                             59          1 -4.39504714E-05       *                     1_GWF-(3,2561)
 Package                           59             7.64321234E-03       *             1_GWF-SFR-(217)-inflow
 ----------------------------------------------------------------------------------------------------------


 59 CALLS TO NUMERICAL SOLUTION IN TIME STEP 1 STRESS PERIOD 1
 377 TOTAL ITERATIONS
1
                            STRESS PERIOD NO.    2, LENGTH =   1460.000    
                            -----------------------------------------------

                              NUMBER OF TIME STEPS =    48

                               MULTIPLIER FOR DELT =     1.000

                            INITIAL TIME STEP SIZE =   30.41667    

 OUTER ITERATION SUMMARY
 ----------------------------------------------------------------------------------------------------------
                                OUTER      INNER                    STEP   MAXIMUM CHANGE MODEL-(CELLID) OR
 OUTER ITERATION STEP       ITERATION  ITERATION  MAXIMUM CHANGE SUCCESS             MODEL-PACKAGE-(NUMBER)
 ----------------------------------------------------------------------------------------------------------
 Model                              1          1 -3.90185359E-05       *                     1_GWF-(1,1560)
 Package                            1                 -163209.88                     1_GWF-SFR-(217)-inflow
 Model                              2          1 -4.43006467E-05       *                     1_GWF-(1,2428)
 Package                            2                  9.9994094                     1_GWF-SFR-(217)-inflow
 Model                              3          1 -2.17609337E-05       *                     1_GWF-(1,1559)
 Package                            3                  14.199303                     1_GWF-SFR-(217)-inflow
 Model                              4          1 -3.87141867E-05       *                     1_GWF-(3,2106)
 Package                            4                  7.2369783                     1_GWF-SFR-(217)-inflow
 Model                              5          1 -1.98558633E-05       *                     1_GWF-(1,1557)
 Package                            5                  8.5192104                     1_GWF-SFR-(217)-inflow
 Model                              6          1 -3.72733957E-05       *                     1_GWF-(3,2106)
 Package                            6                  4.9253534                     1_GWF-SFR-(206)-inflow
 Model                              7          1 -1.81621292E-05       *                     1_GWF-(1,1668)
 Package                            7                  7.4664587                     1_GWF-SFR-(217)-inflow
 Model                              8          1 -3.73899300E-05       *                     1_GWF-(3,2106)
 Package                            8                  3.7957560                     1_GWF-SFR-(206)-inflow
 Model                              9          1 -1.65977711E-05       *                     1_GWF-(1,1668)
 Package                            9                  7.1307444                     1_GWF-SFR-(217)-inflow
 Model                             10          1 -3.87671139E-05       *                     1_GWF-(2,2437)
 Package                           10                  2.9574601                     1_GWF-SFR-(206)-inflow
 Model                             11          1 -1.50426779E-05       *                     1_GWF-(1,1668)
 Package                           11                  7.2431414                     1_GWF-SFR-(217)-inflow
 Model                             12          1 -4.32813902E-05       *                     1_GWF-(3,2604)
 Package                           12                  2.2862125                     1_GWF-SFR-(206)-inflow
 Model                             13          1 -1.34723687E-05       *                     1_GWF-(1,1668)
 Package                           13                  7.7112990                     1_GWF-SFR-(217)-inflow
 Model                             14          1 -5.19767500E-05       *                     1_GWF-(2,2665)
 Package                           14                  1.7346947                     1_GWF-SFR-(206)-inflow
 Model                             15          1 -1.17975964E-05       *                     1_GWF-(1,1668)
 Package                           15                  8.7442039                     1_GWF-SFR-(217)-inflow
 Model                             16          1 -6.96808464E-05       *                     1_GWF-(3,2670)
 Package                           16                  1.2694840                     1_GWF-SFR-(206)-inflow
 Model                             17          1 -1.09636595E-05       *                       1_GWF-(3,86)
 Package                           17                  10.887114                     1_GWF-SFR-(217)-inflow
 Model                             18          1 -1.10420482E-04       *                     1_GWF-(2,2613)
 Package                           18                 0.89821927                     1_GWF-SFR-(217)-inflow
 Model                             19          1  9.31943407E-06       *                     1_GWF-(1,3020)
 Package                           19                  15.443854                     1_GWF-SFR-(206)-inflow
 Model                             20          1 -1.35786227E-04       *                     1_GWF-(2,2704)
 Package                           20                  1.1362223                     1_GWF-SFR-(217)-inflow
 Model                             21          1  1.41331059E-05       *                      1_GWF-(1,973)
 Package                           21                  11.739854                     1_GWF-SFR-(206)-inflow
 Model                             22          1 -8.09315884E-06       *                     1_GWF-(3,2919)
 Package                           22                  1.6353257                     1_GWF-SFR-(217)-inflow
 Model                             23          1 -4.74398971E-06       *                     1_GWF-(3,2561)
 Package                           23                  1.1064357                     1_GWF-SFR-(217)-inflow
 Model                             24          1 -7.04639046E-06       *                     1_GWF-(3,2854)
 Package                           24            -8.63480312E-02                     1_GWF-SFR-(266)-inflow
 Model                             25          1 -3.67915121E-06       *                     1_GWF-(1,2537)
 Package                           25                 0.85290480                     1_GWF-SFR-(217)-inflow
 Model                             26          1 -7.82698842E-06       *                     1_GWF-(3,2854)
 Package                           26                -0.10071176                     1_GWF-SFR-(266)-inflow
 Model                             27          1 -3.16796422E-06       *                     1_GWF-(1,2537)
 Package                           27                 0.82110967                     1_GWF-SFR-(206)-inflow
 Model                             28          1 -9.82707704E-06       *                     1_GWF-(3,2854)
 Package                           28             6.74622208E-02                     1_GWF-SFR-(217)-inflow
 Model                             29          1 -2.59677836E-06       *                     1_GWF-(1,2537)
 Package                           29                 0.89829006                     1_GWF-SFR-(206)-inflow
 Model                             30          1 -1.72687667E-05       *                     1_GWF-(2,2783)
 Package                           30                 0.12451261                     1_GWF-SFR-(217)-inflow
 Model                             31          1 -3.24629036E-06       *                      1_GWF-(3,152)
 Package                           31                  1.3471076                     1_GWF-SFR-(206)-inflow
 Model                             32          1 -6.55113862E-05       *                     1_GWF-(2,2783)
 Package                           32                 0.20533776                     1_GWF-SFR-(217)-inflow
 Model                             33          1 -6.37409161E-06       *                      1_GWF-(1,409)
 Package                           33                  4.6096354                     1_GWF-SFR-(206)-inflow
 Model                             34          1 -2.69928225E-06       *                     1_GWF-(3,2783)
 Package                           34                 0.65259106                     1_GWF-SFR-(217)-inflow
 Model                             35          1 -2.01560843E-06       *                     1_GWF-(3,2486)
 Package                           35                 0.33595316                     1_GWF-SFR-(217)-inflow
 Model                             36          1 -2.70878999E-06       *                     1_GWF-(3,2783)
 Package                           36             9.28945914E-02                     1_GWF-SFR-(206)-inflow
 Model                             37          1 -1.17367597E-06       *                     1_GWF-(3,2487)
 Package                           37                 0.35281169                     1_GWF-SFR-(217)-inflow
 Model                             38          1 -4.70612679E-06       *                     1_GWF-(3,2783)
 Package                           38             3.27691061E-02                     1_GWF-SFR-(206)-inflow
 Model                             39          1 -1.24854381E-06       *                      1_GWF-(3,152)
 Package                           39                 0.44790292                     1_GWF-SFR-(217)-inflow
 Model                             40          1 -3.18809075E-05       *                     1_GWF-(3,2704)
 Package                           40             4.13206720E-02                     1_GWF-SFR-(206)-inflow
 Model                             41          1 -4.64737377E-06       *                      1_GWF-(1,409)
 Package                           41                  2.3074104                     1_GWF-SFR-(206)-inflow
 Model                             42          1 -1.25199756E-06       *                      1_GWF-(1,409)
 Package                           42                 0.19886901                     1_GWF-SFR-(206)-inflow
 Model                             43          1 -1.26921526E-06       *                     1_GWF-(3,2704)
 Package                           43             9.59559119E-02                     1_GWF-SFR-(217)-inflow
 Model                             44          1 -6.14432679E-07       *                     1_GWF-(3,2919)
 Package                           44             5.66097569E-02                     1_GWF-SFR-(206)-inflow
 Model                             45          1 -8.59994742E-07       *                     1_GWF-(3,2704)
 Package                           45             9.16996258E-02                     1_GWF-SFR-(206)-inflow
 Model                             46          1 -5.83243121E-07       *                     1_GWF-(3,2919)
 Package                           46             2.89210045E-02                     1_GWF-SFR-(217)-inflow
 Model                             47          1 -8.65747154E-07       *                     1_GWF-(3,2783)
 Package                           47             7.99100288E-02                     1_GWF-SFR-(206)-inflow
 Model                             48          1 -4.90568425E-07       *                     1_GWF-(3,2919)
 Package                           48             3.60143967E-02                     1_GWF-SFR-(217)-inflow
 Model                             49          1 -1.11851705E-06       *                     1_GWF-(3,2783)
 Package                           49             6.79291657E-02                     1_GWF-SFR-(206)-inflow
 Model                             50          1 -3.74919210E-07       *                     1_GWF-(1,2435)
 Package                           50             5.53828095E-02                     1_GWF-SFR-(217)-inflow
 Model                             51          1 -2.61479047E-06       *                     1_GWF-(3,2783)
 Package                           51             5.68402296E-02                     1_GWF-SFR-(206)-inflow
 Model                             52          1 -5.13080664E-07       *                       1_GWF-(3,86)
 Package                           52                 0.15254444                     1_GWF-SFR-(206)-inflow
 Model                             53          1 -6.91522652E-06       *                     1_GWF-(2,2704)
 Package                           53             6.02457082E-02                     1_GWF-SFR-(206)-inflow
 Model                             54          1 -6.83069004E-07       *                      1_GWF-(1,409)
 Package                           54                 0.49529980                     1_GWF-SFR-(206)-inflow
 Model                             55          1 -1.18401698E-06       *                     1_GWF-(3,2704)
 Package                           55             5.37561510E-02                     1_GWF-SFR-(206)-inflow
 Model                             56          1 -2.18839460E-07       *                      1_GWF-(2,712)
 Package                           56                 0.10706267                     1_GWF-SFR-(206)-inflow
 Model                             57          1 -2.22765487E-06       *                     1_GWF-(3,2704)
 Package                           57             1.99890114E-02                     1_GWF-SFR-(257)-inflow
 Model                             58          1  2.31707759E-07       *                      1_GWF-(3,188)
 Package                           58                 0.18082151                     1_GWF-SFR-(206)-inflow
 Model                             59          1 -1.83636539E-06       *                     1_GWF-(2,2783)
 Package                           59             2.70297741E-02                     1_GWF-SFR-(257)-inflow
 Model                             60          1 -1.90503414E-07       *                      1_GWF-(1,409)
 Package                           60                 0.11951577                     1_GWF-SFR-(217)-inflow
 Model                             61          1 -8.12897810E-07       *                     1_GWF-(3,2565)
 Package                           61             2.56686668E-02                     1_GWF-SFR-(206)-inflow
 Model                             62          1 -3.08115489E-07       *                      1_GWF-(2,320)
 Package                           62             7.40145482E-02                     1_GWF-SFR-(206)-inflow
 Model                             63          1 -4.49869617E-07       *                     1_GWF-(2,2699)
 Package                           63             1.94033867E-02                     1_GWF-SFR-(217)-inflow
 Model                             64          1 -1.20044831E-07       *                     1_GWF-(2,2483)
 Package                           64             1.73218644E-02                     1_GWF-SFR-(217)-inflow
 Model                             65          1 -3.39792109E-07       *                     1_GWF-(3,2563)
 Package                           65             1.54229664E-02                     1_GWF-SFR-(206)-inflow
 Model                             66          1 -9.69215819E-08       *                     1_GWF-(3,2970)
 Package                           66             4.61137367E-02                     1_GWF-SFR-(217)-inflow
 Model                             67          1 -4.04588633E-07       *                     1_GWF-(3,2563)
 Package                           67            -6.52921298E-03       *             1_GWF-SFR-(217)-inflow
 ----------------------------------------------------------------------------------------------------------


 67 CALLS TO NUMERICAL SOLUTION IN TIME STEP 1 STRESS PERIOD 2
 67 TOTAL ITERATIONS

 OUTER ITERATION SUMMARY
 ----------------------------------------------------------------------------------------------------------
                                OUTER      INNER                    STEP   MAXIMUM CHANGE MODEL-(CELLID) OR
 OUTER ITERATION STEP       ITERATION  ITERATION  MAXIMUM CHANGE SUCCESS             MODEL-PACKAGE-(NUMBER)
 ----------------------------------------------------------------------------------------------------------
 Model                              1         24 -4.72250910E-02                             1_GWF-(1,2672)
 Model                              2          2 -5.01394587E-03       *                      1_GWF-(1,409)
 Package                            2                  7490.5670                     1_GWF-SFR-(206)-inflow
 Model                              3          2 -1.08492182E-03       *                      1_GWF-(1,409)
 Package                            3                  1928.0630                     1_GWF-SFR-(217)-inflow
 Model                              4          1 -2.41259947E-04       *                      1_GWF-(1,409)
 Package                            4                  547.27818                     1_GWF-SFR-(257)-inflow
 Model                              5          1 -1.26356491E-04       *                      1_GWF-(3,134)
 Package                            5                  154.81541                     1_GWF-SFR-(257)-inflow
 Model                              6          1 -1.71289397E-04       *                      1_GWF-(3,134)
 Package                            6                  87.790233                     1_GWF-SFR-(257)-inflow
 Model                              7          1 -1.44692572E-04       *                      1_GWF-(3,133)
 Package                            7                  69.805296                     1_GWF-SFR-(257)-inflow
 Model                              8          1 -1.36543294E-04       *                      1_GWF-(3,130)
 Package                            8                  48.571598                     1_GWF-SFR-(257)-inflow
 Model                              9          1 -9.10324995E-05       *                       1_GWF-(3,35)
 Package                            9                  42.199413                     1_GWF-SFR-(217)-inflow
 Model                             10          1 -9.51819276E-05       *                      1_GWF-(3,358)
 Package                           10                  31.872616                     1_GWF-SFR-(217)-inflow
 Model                             11          1 -7.36283126E-05       *                      1_GWF-(3,512)
 Package                           11                  31.037199                     1_GWF-SFR-(217)-inflow
 Model                             12          1 -9.03820963E-05       *                      1_GWF-(3,674)
 Package                           12                  23.254884                     1_GWF-SFR-(217)-inflow
 Model                             13          1 -7.15109067E-05       *                      1_GWF-(3,921)
 Package                           13                  22.853062                     1_GWF-SFR-(217)-inflow
 Model                             14          1 -6.16384949E-05       *                     1_GWF-(3,1406)
 Package                           14                  19.878165                     1_GWF-SFR-(217)-inflow
 Model                             15          1 -5.39150109E-05       *                     1_GWF-(3,1169)
 Package                           15                  8.3213005                     1_GWF-SFR-(217)-inflow
 Model                             16          1 -2.39029173E-05       *                      1_GWF-(2,171)
 Package                           16                  19.374441                     1_GWF-SFR-(217)-inflow
 Model                             17          1 -9.32749143E-05       *                     1_GWF-(3,1854)
 Package                           17                  1.8790868                     1_GWF-SFR-(266)-inflow
 Model                             18          1 -1.75815471E-05       *                      1_GWF-(2,171)
 Package                           18                  27.844356                     1_GWF-SFR-(217)-inflow
 Model                             19          1 -1.13876366E-04       *                     1_GWF-(2,2635)
 Package                           19                 -3.3779189                     1_GWF-SFR-(217)-inflow
 Model                             20          1 -1.43426879E-05       *                     1_GWF-(1,2429)
 Package                           20                  23.047379                     1_GWF-SFR-(206)-inflow
 Model                             21          1 -1.03379756E-04       *                     1_GWF-(2,2783)
 Package                           21                  3.3882429                     1_GWF-SFR-(217)-inflow
 Model                             22          1  1.50468362E-05       *                      1_GWF-(1,973)
 Package                           22                  16.977927                     1_GWF-SFR-(217)-inflow
 Model                             23          1 -7.52215252E-05       *                     1_GWF-(2,2783)
 Package                           23                  2.9442128                     1_GWF-SFR-(217)-inflow
 Model                             24          1  1.59152721E-05       *                      1_GWF-(1,973)
 Package                           24                  10.640286                     1_GWF-SFR-(217)-inflow
 Model                             25          1 -4.77176771E-05       *                     1_GWF-(2,2783)
 Package                           25                  1.7735234                     1_GWF-SFR-(206)-inflow
 Model                             26          1 -1.83300228E-05       *                       1_GWF-(3,22)
 Package                           26                  6.4947103                     1_GWF-SFR-(217)-inflow
 Model                             27          1 -4.26148018E-05       *                     1_GWF-(2,2783)
 Package                           27                  1.1891220                     1_GWF-SFR-(217)-inflow
 Model                             28          1  1.25263286E-05       *                       1_GWF-(3,20)
 Package                           28                  4.6490944                     1_GWF-SFR-(206)-inflow
 Model                             29          1 -2.52984388E-05       *                     1_GWF-(2,2783)
 Package                           29                  1.2591895                     1_GWF-SFR-(257)-inflow
 Model                             30          1 -7.43580944E-06       *                     1_GWF-(1,1053)
 Package                           30                  4.0659639                     1_GWF-SFR-(217)-inflow
 Model                             31          1 -3.14179771E-05       *                     1_GWF-(2,2783)
 Package                           31                 0.72919628                     1_GWF-SFR-(206)-inflow
 Model                             32          1 -6.31652537E-06       *                     1_GWF-(1,1053)
 Package                           32                  3.3023298                     1_GWF-SFR-(206)-inflow
 Model                             33          1 -3.68043933E-05       *                     1_GWF-(2,2783)
 Package                           33                 0.58341085                     1_GWF-SFR-(206)-inflow
 Model                             34          1 -6.57088242E-06       *                      1_GWF-(3,118)
 Package                           34                  4.5897266                     1_GWF-SFR-(217)-inflow
 Model                             35          1 -6.39972393E-05       *                     1_GWF-(2,2783)
 Package                           35                 0.46079593                     1_GWF-SFR-(206)-inflow
 Model                             36          1 -9.52389763E-06       *                      1_GWF-(3,266)
 Package                           36                  5.5177288                     1_GWF-SFR-(206)-inflow
 Model                             37          1  1.49215079E-05       *                       1_GWF-(3,22)
 Package                           37                  1.4401158                     1_GWF-SFR-(217)-inflow
 Model                             38          1 -6.80719904E-06       *                       1_GWF-(3,22)
 Package                           38                  2.9851331                     1_GWF-SFR-(257)-inflow
 Model                             39          1 -1.75015496E-05       *                     1_GWF-(2,2783)
 Package                           39                 0.53481436                     1_GWF-SFR-(206)-inflow
 Model                             40          1 -4.32243860E-06       *                     1_GWF-(1,1053)
 Package                           40                  1.4857086                     1_GWF-SFR-(206)-inflow
 Model                             41          1 -1.73400851E-05       *                     1_GWF-(2,2783)
 Package                           41                 0.55787012                     1_GWF-SFR-(257)-inflow
 Model                             42          1 -3.98120739E-06       *                     1_GWF-(1,1053)
 Package                           42                  1.6513240                     1_GWF-SFR-(217)-inflow
 Model                             43          1 -2.13137632E-05       *                     1_GWF-(2,2783)
 Package                           43                 0.29123331                     1_GWF-SFR-(206)-inflow
 Model                             44          1 -4.33889349E-06       *                      1_GWF-(3,118)
 Package                           44                  1.7924805                     1_GWF-SFR-(206)-inflow
 Model                             45          1 -4.03429263E-05       *                     1_GWF-(2,2783)
 Package                           45                 0.29691897                     1_GWF-SFR-(206)-inflow
 Model                             46          1 -6.20904478E-06       *                      1_GWF-(3,118)
 Package                           46                  3.2685243                     1_GWF-SFR-(206)-inflow
 Model                             47          1 -8.99971276E-05       *                     1_GWF-(2,2784)
 Package                           47                 0.37209642                     1_GWF-SFR-(206)-inflow
 Model                             48          1  8.38946337E-06       *                      1_GWF-(1,973)
 Package                           48                  6.2738605                     1_GWF-SFR-(206)-inflow
 Model                             49          1  6.34563884E-06       *                       1_GWF-(3,23)
 Package                           49                  1.4356960                     1_GWF-SFR-(217)-inflow
 Model                             50          1 -2.53349614E-06       *                     1_GWF-(2,2560)
 Package                           50                  1.1723001                     1_GWF-SFR-(257)-inflow
 Model                             51          1 -8.11564851E-06       *                     1_GWF-(2,2704)
 Package                           51                 0.36533454                     1_GWF-SFR-(257)-inflow
 Model                             52          1 -2.43658320E-06       *                     1_GWF-(1,1053)
 Package                           52                 0.68237845                     1_GWF-SFR-(217)-inflow
 Model                             53          1 -3.41319395E-06       *                     1_GWF-(2,2783)
 Package                           53             8.69339391E-02                     1_GWF-SFR-(257)-inflow
 Model                             54          1 -1.80119997E-06       *                     1_GWF-(2,2704)
 Package                           54                 0.34935715                     1_GWF-SFR-(217)-inflow
 Model                             55          1 -2.69135222E-06       *                     1_GWF-(2,2783)
 Package                           55             6.62511645E-02                     1_GWF-SFR-(206)-inflow
 Model                             56          1 -1.83593377E-06       *                     1_GWF-(2,2704)
 Package                           56                 0.28092854                     1_GWF-SFR-(217)-inflow
 Model                             57          1 -2.31824254E-06       *                     1_GWF-(2,2783)
 Package                           57             7.80836101E-02                     1_GWF-SFR-(206)-inflow
 Model                             58          1 -1.82439516E-06       *                     1_GWF-(2,2704)
 Package                           58                 0.23848629                     1_GWF-SFR-(217)-inflow
 Model                             59          1 -2.10060711E-06       *                     1_GWF-(2,2783)
 Package                           59             8.64035950E-02                     1_GWF-SFR-(206)-inflow
 Model                             60          1 -1.76743549E-06       *                     1_GWF-(2,2704)
 Package                           60                 0.21056195                     1_GWF-SFR-(206)-inflow
 Model                             61          1 -1.96993136E-06       *                     1_GWF-(2,2704)
 Package                           61             9.09665010E-02                     1_GWF-SFR-(206)-inflow
 Model                             62          1 -1.66993104E-06       *                     1_GWF-(2,2704)
 Package                           62                 0.19277325                     1_GWF-SFR-(206)-inflow
 Model                             63          1 -1.90733957E-06       *                     1_GWF-(2,2704)
 Package                           63             9.20568913E-02                     1_GWF-SFR-(206)-inflow
 Model                             64          1 -1.53105876E-06       *                     1_GWF-(2,2704)
 Package                           64                 0.18023634                     1_GWF-SFR-(206)-inflow
 Model                             65          1 -1.92677018E-06       *                     1_GWF-(2,2704)
 Package                           65             9.03798301E-02                     1_GWF-SFR-(217)-inflow
 Model                             66          1 -1.34469173E-06       *                     1_GWF-(2,2784)
 Package                           66                 0.17378353                     1_GWF-SFR-(206)-inflow
 Model                             67          1 -2.09332691E-06       *                     1_GWF-(2,2704)
 Package                           67             8.67945171E-02                     1_GWF-SFR-(217)-inflow
 Model                             68          1 -1.10621428E-06       *                     1_GWF-(2,2784)
 Package                           68                 0.17762369                     1_GWF-SFR-(206)-inflow
 Model                             69          1 -2.63539184E-06       *                     1_GWF-(2,2704)
 Package                           69             7.99140159E-02                     1_GWF-SFR-(217)-inflow
 Model                             70          1 -8.26000445E-07       *                     1_GWF-(2,2783)
 Package                           70                 0.20713042                     1_GWF-SFR-(206)-inflow
 Model                             71          1 -4.73175535E-06       *                     1_GWF-(2,2704)
 Package                           71             7.28085784E-02                     1_GWF-SFR-(217)-inflow
 Model                             72          1 -1.19037441E-06       *                      1_GWF-(3,188)
 Package                           72                 0.34281907                     1_GWF-SFR-(206)-inflow
 Model                             73          1 -2.31717522E-05       *                     1_GWF-(2,2704)
 Package                           73             7.84638469E-02                     1_GWF-SFR-(217)-inflow
 Model                             74          1 -3.26073112E-06       *                      1_GWF-(1,409)
 Package                           74                  1.5675829                     1_GWF-SFR-(206)-inflow
 Model                             75          1 -1.04378094E-06       *                      1_GWF-(1,409)
 Package                           75                 0.26094294                     1_GWF-SFR-(217)-inflow
 Model                             76          1 -1.16703086E-06       *                     1_GWF-(2,2704)
 Package                           76                 0.10680715                     1_GWF-SFR-(217)-inflow
 Model                             77          1 -6.19642293E-07       *                     1_GWF-(2,2783)
 Package                           77             6.15640123E-02                     1_GWF-SFR-(206)-inflow
 Model                             78          1 -6.72572497E-07       *                     1_GWF-(3,2783)
 Package                           78             9.61783853E-02                     1_GWF-SFR-(217)-inflow
 Model                             79          1 -6.40076422E-07       *                     1_GWF-(2,2783)
 Package                           79             2.34826700E-02                     1_GWF-SFR-(206)-inflow
 Model                             80          1 -5.82638478E-07       *                     1_GWF-(3,2783)
 Package                           80             7.85707979E-02                     1_GWF-SFR-(217)-inflow
 Model                             81          1 -6.55891057E-07       *                     1_GWF-(2,2783)
 Package                           81             2.42355158E-02                     1_GWF-SFR-(206)-inflow
 Model                             82          1 -5.16308603E-07       *                     1_GWF-(3,2783)
 Package                           82             6.98219703E-02                     1_GWF-SFR-(206)-inflow
 Model                             83          1 -6.75044845E-07       *                     1_GWF-(2,2783)
 Package                           83             2.55000642E-02                     1_GWF-SFR-(217)-inflow
 Model                             84          1 -4.53355455E-07       *                     1_GWF-(3,2783)
 Package                           84             6.57517065E-02                     1_GWF-SFR-(206)-inflow
 Model                             85          1 -7.23632240E-07       *                     1_GWF-(2,2783)
 Package                           85             2.75336934E-02                     1_GWF-SFR-(217)-inflow
 Model                             86          1 -3.82212647E-07       *                     1_GWF-(3,2783)
 Package                           86             6.48081984E-02                     1_GWF-SFR-(206)-inflow
 Model                             87          1 -8.61997165E-07       *                     1_GWF-(2,2783)
 Package                           87             2.77356132E-02                     1_GWF-SFR-(217)-inflow
 Model                             88          1 -2.98580147E-07       *                     1_GWF-(3,2783)
 Package                           88             7.04819798E-02                     1_GWF-SFR-(206)-inflow
 Model                             89          1 -1.32736719E-06       *                     1_GWF-(2,2783)
 Package                           89             2.70396471E-02                     1_GWF-SFR-(217)-inflow
 Model                             90          1 -3.35394560E-07       *                      1_GWF-(3,118)
 Package                           90             9.82623113E-02                     1_GWF-SFR-(206)-inflow
 Model                             91          1 -4.16213479E-06       *                     1_GWF-(2,2783)
 Package                           91             2.86751317E-02                     1_GWF-SFR-(217)-inflow
 Model                             92          1 -6.30643768E-07       *                      1_GWF-(1,409)
 Package                           92                 0.28840357                     1_GWF-SFR-(206)-inflow
 Model                             93          1 -1.77306239E-06       *                     1_GWF-(2,2704)
 Package                           93             5.24680372E-02                     1_GWF-SFR-(217)-inflow
 Model                             94          1 -3.38996216E-07       *                      1_GWF-(1,409)
 Package                           94                 0.15427398                     1_GWF-SFR-(217)-inflow
 Model                             95          1 -2.25420598E-06       *                     1_GWF-(2,2704)
 Package                           95             5.71096026E-03       *             1_GWF-SFR-(206)-inflow
 ----------------------------------------------------------------------------------------------------------


 95 CALLS TO NUMERICAL SOLUTION IN TIME STEP 2 STRESS PERIOD 2
 120 TOTAL ITERATIONS

 OUTER ITERATION SUMMARY
 ----------------------------------------------------------------------------------------------------------
                                OUTER      INNER                    STEP   MAXIMUM CHANGE MODEL-(CELLID) OR
 OUTER ITERATION STEP       ITERATION  ITERATION  MAXIMUM CHANGE SUCCESS             MODEL-PACKAGE-(NUMBER)
 ----------------------------------------------------------------------------------------------------------
 Model                              1         19 -4.03088266E-02                             1_GWF-(1,2744)
 Model                              2          2 -4.81459343E-03       *                      1_GWF-(1,409)
 Package                            2                  5319.9794                     1_GWF-SFR-(206)-inflow
 Model                              3          2 -1.27403233E-03       *                      1_GWF-(1,409)
 Package                            3                  1403.7953                     1_GWF-SFR-(217)-inflow
 Model                              4          1 -3.50507153E-04       *                      1_GWF-(1,409)
 Package                            4                  405.38125                     1_GWF-SFR-(217)-inflow
 Model                              5          1 -1.19868587E-04       *                      1_GWF-(1,409)
 Package                            5                  113.75618                     1_GWF-SFR-(257)-inflow
 Model                              6          1 -1.23059532E-04       *                      1_GWF-(3,170)
 Package                            6                  66.077348                     1_GWF-SFR-(257)-inflow
 Model                              7          1 -1.05687322E-04       *                      1_GWF-(3,134)
 Package                            7                  52.683178                     1_GWF-SFR-(257)-inflow
 Model                              8          1 -1.31547023E-04       *                     1_GWF-(2,2783)
 Package                            8                  39.037863                     1_GWF-SFR-(217)-inflow
 Model                              9          1 -1.28882064E-04       *                     1_GWF-(2,2704)
 Package                            9                  35.815397                     1_GWF-SFR-(217)-inflow
 Model                             10          1 -1.67988659E-04       *                     1_GWF-(2,2635)
 Package                           10                  27.457177                     1_GWF-SFR-(217)-inflow
 Model                             11          1 -1.63963314E-04       *                     1_GWF-(2,2565)
 Package                           11                  25.749746                     1_GWF-SFR-(217)-inflow
 Model                             12          1 -1.95800058E-04       *                     1_GWF-(2,2565)
 Package                           12                  21.067430                     1_GWF-SFR-(217)-inflow
 Model                             13          1 -1.94029010E-04       *                     1_GWF-(2,2565)
 Package                           13                  13.738847                     1_GWF-SFR-(217)-inflow
 Model                             14          1 -4.56476115E-05       *                     1_GWF-(2,2565)
 Package                           14                  23.826836                     1_GWF-SFR-(217)-inflow
 Model                             15          1 -2.50324957E-04       *                     1_GWF-(2,2565)
 Package                           15                 -5.1193767                     1_GWF-SFR-(217)-inflow
 Model                             16          1 -4.48138432E-05       *                      1_GWF-(1,409)
 Package                           16                  26.210574                     1_GWF-SFR-(217)-inflow
 Model                             17          1 -2.10381584E-04       *                     1_GWF-(2,2565)
 Package                           17                 -6.4204018                     1_GWF-SFR-(217)-inflow
 Model                             18          1 -3.00686798E-05       *                     1_GWF-(2,2565)
 Package                           18                  17.524361                     1_GWF-SFR-(217)-inflow
 Model                             19          1 -1.77058191E-04       *                     1_GWF-(2,2565)
 Package                           19                 -2.6632475                     1_GWF-SFR-(217)-inflow
 Model                             20          1 -2.61365676E-05       *                      1_GWF-(3,188)
 Package                           20                  14.272485                     1_GWF-SFR-(206)-inflow
 Model                             21          1 -2.86338824E-04       *                     1_GWF-(2,2635)
 Package                           21                 -1.3033410                     1_GWF-SFR-(206)-inflow
 Model                             22          1 -3.64421179E-05       *                      1_GWF-(3,188)
 Package                           22                  19.619429                     1_GWF-SFR-(206)-inflow
 Model                             23          1 -7.26794232E-04       *                     1_GWF-(2,2704)
 Package                           23                  1.2970135                     1_GWF-SFR-(245)-inflow
 Model                             24          1 -6.57057626E-05       *                      1_GWF-(1,409)
 Package                           24                  39.108207                     1_GWF-SFR-(206)-inflow
 Model                             25          1 -2.39678735E-05       *                      1_GWF-(1,409)
 Package                           25                  9.7451776                     1_GWF-SFR-(217)-inflow
 Model                             26          1 -4.66474263E-05       *                     1_GWF-(2,2783)
 Package                           26                  2.9720581                     1_GWF-SFR-(206)-inflow
 Model                             27          1 -1.32035717E-05       *                     1_GWF-(3,2783)
 Package                           27                  1.6157906                     1_GWF-SFR-(206)-inflow
 Model                             28          1 -2.32558215E-05       *                     1_GWF-(2,2783)
 Package                           28                  4.0670820                     1_GWF-SFR-(217)-inflow
 Model                             29          1 -1.47966644E-05       *                     1_GWF-(3,2783)
 Package                           29                -0.34569590                     1_GWF-SFR-(245)-inflow
 Model                             30          1 -1.77686478E-05       *                     1_GWF-(2,2783)
 Package                           30                  3.0815012                     1_GWF-SFR-(217)-inflow
 Model                             31          1 -1.59624975E-05       *                     1_GWF-(3,2783)
 Package                           31                -0.11153762                     1_GWF-SFR-(245)-inflow
 Model                             32          1 -1.48036797E-05       *                     1_GWF-(2,2783)
 Package                           32                  2.7513886                     1_GWF-SFR-(206)-inflow
 Model                             33          1 -1.70440933E-05       *                     1_GWF-(3,2704)
 Package                           33                 0.15162965                     1_GWF-SFR-(257)-inflow
 Model                             34          1 -1.24212233E-05       *                     1_GWF-(2,2783)
 Package                           34                  2.5716629                     1_GWF-SFR-(206)-inflow
 Model                             35          1 -1.93100665E-05       *                     1_GWF-(2,2784)
 Package                           35                 0.23907474                     1_GWF-SFR-(257)-inflow
 Model                             36          1 -9.87071280E-06       *                     1_GWF-(2,2783)
 Package                           36                  2.5165164                     1_GWF-SFR-(206)-inflow
 Model                             37          1 -2.65665477E-05       *                     1_GWF-(2,2784)
 Package                           37                 0.27246566                     1_GWF-SFR-(257)-inflow
 Model                             38          1 -8.92111944E-06       *                      1_GWF-(3,118)
 Package                           38                  2.8576546                     1_GWF-SFR-(206)-inflow
 Model                             39          1 -6.86366288E-05       *                     1_GWF-(2,2784)
 Package                           39                 0.28878103                     1_GWF-SFR-(257)-inflow
 Model                             40          1 -1.47780271E-05       *                      1_GWF-(3,118)
 Package                           40                  5.8142303                     1_GWF-SFR-(206)-inflow
 Model                             41          1 -1.56288889E-04       *                     1_GWF-(2,2783)
 Package                           41                 0.49277008                     1_GWF-SFR-(257)-inflow
 Model                             42          1 -3.47558939E-05       *                      1_GWF-(1,409)
 Package                           42                  11.477271                     1_GWF-SFR-(217)-inflow
 Model                             43          1 -1.56886769E-05       *                      1_GWF-(1,409)
 Package                           43                  1.2518363                     1_GWF-SFR-(206)-inflow
 Model                             44          1 -6.77385268E-06       *                     1_GWF-(2,2783)
 Package                           44                 0.61443237                     1_GWF-SFR-(206)-inflow
 Model                             45          1 -8.75901685E-06       *                     1_GWF-(3,2704)
 Package                           45                 0.99717906                     1_GWF-SFR-(217)-inflow
 Model                             46          1 -5.14851268E-06       *                     1_GWF-(2,2783)
 Package                           46                 0.54905809                     1_GWF-SFR-(206)-inflow
 Model                             47          1 -1.14529609E-05       *                     1_GWF-(3,2704)
 Package                           47                 0.72781231                     1_GWF-SFR-(217)-inflow
 Model                             48          1 -3.95546328E-06       *                      1_GWF-(3,118)
 Package                           48                 0.73697848                     1_GWF-SFR-(206)-inflow
 Model                             49          1 -2.67170445E-05       *                     1_GWF-(2,2704)
 Package                           49                 0.61472754                     1_GWF-SFR-(217)-inflow
 Model                             50          1 -6.18700926E-06       *                      1_GWF-(3,118)
 Package                           50                  1.7048826                     1_GWF-SFR-(206)-inflow
 Model                             51          1 -6.78243653E-05       *                     1_GWF-(2,2704)
 Package                           51                 0.72658907                     1_GWF-SFR-(217)-inflow
 Model                             52          1 -9.44649113E-06       *                      1_GWF-(1,409)
 Package                           52                  5.5851955                     1_GWF-SFR-(217)-inflow
 Model                             53          1 -1.01758646E-05       *                     1_GWF-(2,2784)
 Package                           53                 0.14587116                     1_GWF-SFR-(206)-inflow
 Model                             54          1 -2.03674861E-06       *                      1_GWF-(3,188)
 Package                           54                 0.33731343                     1_GWF-SFR-(206)-inflow
 Model                             55          1 -7.74832333E-06       *                     1_GWF-(3,2704)
 Package                           55                 0.82174827                     1_GWF-SFR-(217)-inflow
 Model                             56          1 -2.54255499E-06       *                     1_GWF-(2,2783)
 Package                           56                 0.42240330                     1_GWF-SFR-(206)-inflow
 Model                             57          1 -4.85792134E-06       *                     1_GWF-(3,2704)
 Package                           57                 0.59891890                     1_GWF-SFR-(217)-inflow
 Model                             58          1 -2.28411000E-06       *                     1_GWF-(2,2783)
 Package                           58                 0.19039397                     1_GWF-SFR-(206)-inflow
 Model                             59          1 -4.92766486E-06       *                     1_GWF-(3,2704)
 Package                           59                 0.48329763                     1_GWF-SFR-(217)-inflow
 Model                             60          1 -1.88884937E-06       *                     1_GWF-(2,2783)
 Package                           60                 0.21690897                     1_GWF-SFR-(206)-inflow
 Model                             61          1 -7.38643547E-06       *                     1_GWF-(3,2704)
 Package                           61                 0.40183036                     1_GWF-SFR-(217)-inflow
 Model                             62          1 -2.13758355E-06       *                      1_GWF-(3,118)
 Package                           62                 0.37654279                     1_GWF-SFR-(206)-inflow
 Model                             63          1 -2.49425195E-05       *                     1_GWF-(2,2704)
 Package                           63                 0.37906802                     1_GWF-SFR-(217)-inflow
 Model                             64          1 -3.81644000E-06       *                      1_GWF-(1,409)
 Package                           64                  1.6034817                     1_GWF-SFR-(206)-inflow
 Model                             65          1 -6.84771419E-06       *                     1_GWF-(2,2783)
 Package                           65                 0.44839456                     1_GWF-SFR-(217)-inflow
 Model                             66          1 -1.52314260E-06       *                      1_GWF-(1,409)
 Package                           66                 0.80083333                     1_GWF-SFR-(217)-inflow
 Model                             67          1 -1.16676867E-05       *                     1_GWF-(2,2783)
 Package                           67                -0.12421266                     1_GWF-SFR-(217)-inflow
 Model                             68          1  1.27314777E-06       *                      1_GWF-(3,152)
 Package                           68                 0.93295435                     1_GWF-SFR-(206)-inflow
 Model                             69          1 -1.57120465E-05       *                     1_GWF-(2,2783)
 Package                           69             9.20812496E-02                     1_GWF-SFR-(257)-inflow
 Model                             70          1  1.21957993E-06       *                      1_GWF-(3,152)
 Package                           70                  1.0690620                     1_GWF-SFR-(206)-inflow
 Model                             71          1 -2.59412215E-06       *                     1_GWF-(2,2704)
 Package                           71                 0.31040736                     1_GWF-SFR-(217)-inflow
 Model                             72          1 -9.62492692E-07       *                     1_GWF-(3,2854)
 Package                           72                 0.17402387                     1_GWF-SFR-(257)-inflow
 Model                             73          1 -1.69834684E-06       *                     1_GWF-(3,2562)
 Package                           73                 0.10908434                     1_GWF-SFR-(206)-inflow
 Model                             74          1 -6.55078054E-07       *                     1_GWF-(3,2920)
 Package                           74                 0.18238563                     1_GWF-SFR-(217)-inflow
 Model                             75          1 -2.17620800E-06       *                     1_GWF-(3,2635)
 Package                           75            -4.19598494E-02                     1_GWF-SFR-(245)-inflow
 Model                             76          1 -5.67259889E-07       *                      1_GWF-(3,118)
 Package                           76                 0.23419661                     1_GWF-SFR-(217)-inflow
 Model                             77          1 -3.27255873E-06       *                     1_GWF-(3,2704)
 Package                           77            -2.96413438E-02                     1_GWF-SFR-(245)-inflow
 Model                             78          1 -6.75895507E-07       *                      1_GWF-(3,118)
 Package                           78                 0.29890705                     1_GWF-SFR-(217)-inflow
 Model                             79          1 -7.18258212E-06       *                     1_GWF-(2,2704)
 Package                           79             3.10854096E-02                     1_GWF-SFR-(206)-inflow
 Model                             80          1 -1.24812911E-06       *                      1_GWF-(1,409)
 Package                           80                 0.58254409                     1_GWF-SFR-(217)-inflow
 Model                             81          1 -5.82320413E-06       *                     1_GWF-(2,2783)
 Package                           81             3.98827757E-02                     1_GWF-SFR-(266)-inflow
 Model                             82          1 -9.21414028E-07       *                      1_GWF-(1,409)
 Package                           82                 0.42878686                     1_GWF-SFR-(206)-inflow
 Model                             83          1 -2.42133717E-06       *                     1_GWF-(3,2635)
 Package                           83             5.48067239E-02                     1_GWF-SFR-(257)-inflow
 Model                             84          1 -2.97001662E-07       *                     1_GWF-(1,2429)
 Package                           84                 0.19463749                     1_GWF-SFR-(206)-inflow
 Model                             85          1 -2.17813854E-06       *                     1_GWF-(3,2783)
 Package                           85             4.83182386E-02                     1_GWF-SFR-(217)-inflow
 Model                             86          1  3.90512014E-07       *                      1_GWF-(3,226)
 Package                           86             8.27145616E-02                     1_GWF-SFR-(257)-inflow
 Model                             87          1 -1.26847172E-06       *                      1_GWF-(3,830)
 Package                           87             6.72487221E-02                     1_GWF-SFR-(217)-inflow
 Model                             88          1  3.72697002E-07       *                     1_GWF-(3,1240)
 Package                           88                 0.18056332                     1_GWF-SFR-(206)-inflow
 Model                             89          1 -7.99826836E-07       *                     1_GWF-(3,2783)
 Package                           89            -2.41951783E-02                     1_GWF-SFR-(206)-inflow
 Model                             90          1 -2.12935532E-07       *                      1_GWF-(3,830)
 Package                           90             2.83172325E-02                     1_GWF-SFR-(257)-inflow
 Model                             91          1 -6.90052019E-07       *                     1_GWF-(2,2556)
 Package                           91             3.88604723E-02                     1_GWF-SFR-(206)-inflow
 Model                             92          1 -1.72833836E-07       *                      1_GWF-(3,118)
 Package                           92             6.67461130E-02                     1_GWF-SFR-(217)-inflow
 Model                             93          1 -1.05261421E-06       *                     1_GWF-(3,2783)
 Package                           93             9.17432981E-03       *             1_GWF-SFR-(206)-inflow
 ----------------------------------------------------------------------------------------------------------


 93 CALLS TO NUMERICAL SOLUTION IN TIME STEP 3 STRESS PERIOD 2
 113 TOTAL ITERATIONS

 OUTER ITERATION SUMMARY
 ----------------------------------------------------------------------------------------------------------
                                OUTER      INNER                    STEP   MAXIMUM CHANGE MODEL-(CELLID) OR
 OUTER ITERATION STEP       ITERATION  ITERATION  MAXIMUM CHANGE SUCCESS             MODEL-PACKAGE-(NUMBER)
 ----------------------------------------------------------------------------------------------------------
 Model                              1         12  1.45789943E-02                             1_GWF-(1,2170)
 Model                              2          2  1.87662730E-03       *                     1_GWF-(1,2429)
 Package                            2                 -3566.8272                     1_GWF-SFR-(206)-inflow
 Model                              3          1  3.88216344E-04       *                      1_GWF-(1,409)
 Package                            3                 -963.86107                     1_GWF-SFR-(217)-inflow
 Model                              4          1  1.48229142E-04       *                     1_GWF-(2,1853)
 Package                            4                 -218.64762                     1_GWF-SFR-(257)-inflow
 Model                              5          1  2.58454850E-04       *                     1_GWF-(2,1853)
 Package                            5                 -108.83340                     1_GWF-SFR-(257)-inflow
 Model                              6          1  2.89300953E-04       *                     1_GWF-(2,1929)
 Package                            6                 -85.820174                     1_GWF-SFR-(257)-inflow
 Model                              7          1  5.24046519E-04       *                     1_GWF-(2,2075)
 Package                            7                 -51.448415                     1_GWF-SFR-(217)-inflow
 Model                              8          1  4.01298087E-04       *                     1_GWF-(2,2564)
 Package                            8                 -62.575901                     1_GWF-SFR-(217)-inflow
 Model                              9          4  8.80165792E-03       *                     1_GWF-(2,2635)
 Package                            9                 -34.787221                     1_GWF-SFR-(217)-inflow
 Model                             10          1  6.38549364E-04       *                      1_GWF-(1,409)
 Package                           10                 -422.03398                     1_GWF-SFR-(206)-inflow
 Model                             11          1  1.90895661E-04       *                      1_GWF-(1,409)
 Package                           11                 -92.172337                     1_GWF-SFR-(217)-inflow
 Model                             12          1 -1.63088249E-04       *                     1_GWF-(3,3134)
 Package                           12                 -29.679825                     1_GWF-SFR-(217)-inflow
 Model                             13          1 -2.11971778E-04       *                     1_GWF-(3,3132)
 Package                           13                 -14.021385                     1_GWF-SFR-(217)-inflow
 Model                             14          1 -1.24623085E-04       *                     1_GWF-(2,3135)
 Package                           14                  6.5986719                     1_GWF-SFR-(257)-inflow
 Model                             15          1 -4.99204681E-05       *                     1_GWF-(3,3132)
 Package                           15                 -12.622055                     1_GWF-SFR-(217)-inflow
 Model                             16          1 -6.99021030E-05       *                     1_GWF-(3,3126)
 Package                           16                 -3.6024717                     1_GWF-SFR-(206)-inflow
 Model                             17          1 -2.83740542E-05       *                     1_GWF-(3,3133)
 Package                           17                 -5.1609368                     1_GWF-SFR-(217)-inflow
 Model                             18          1 -5.28646735E-05       *                     1_GWF-(3,3126)
 Package                           18                 -5.2148217                     1_GWF-SFR-(206)-inflow
 Model                             19          1 -1.63327257E-05       *                     1_GWF-(3,3134)
 Package                           19                 -4.5477573                     1_GWF-SFR-(217)-inflow
 Model                             20          1 -3.72810291E-05       *                     1_GWF-(3,3126)
 Package                           20                 -4.2840904                     1_GWF-SFR-(206)-inflow
 Model                             21          1  9.63935722E-06       *                     1_GWF-(1,1124)
 Package                           21                 -4.3241201                     1_GWF-SFR-(217)-inflow
 Model                             22          1  3.12664929E-05       *                     1_GWF-(1,1452)
 Package                           22                 -2.9099443                     1_GWF-SFR-(206)-inflow
 Model                             23          1  6.70693390E-06       *                      1_GWF-(1,561)
 Package                           23                 -4.1361303                     1_GWF-SFR-(217)-inflow
 Model                             24          1  3.22739961E-05       *                     1_GWF-(1,1543)
 Package                           24                 -1.8865633                     1_GWF-SFR-(206)-inflow
[...]
 Model                              3          1  6.53564633E-04       *                      1_GWF-(1,409)
 Package                            3                 -1449.1307                     1_GWF-SFR-(217)-inflow
 Model                              4          1  1.52718176E-04       *                      1_GWF-(1,409)
 Package                            4                 -320.25207                     1_GWF-SFR-(257)-inflow
 Model                              5          1  1.50650100E-04       *                      1_GWF-(2,100)
 Package                            5                 -138.28835                     1_GWF-SFR-(257)-inflow
 Model                              6          1  1.34746835E-04       *                      1_GWF-(3,134)
 Package                            6                 -91.515294                     1_GWF-SFR-(257)-inflow
 Model                              7          1  1.35400411E-04       *                      1_GWF-(3,134)
 Package                            7                 -63.940698                     1_GWF-SFR-(257)-inflow
 Model                              8          1  1.15791711E-04       *                      1_GWF-(3,133)
 Package                            8                 -47.941696                     1_GWF-SFR-(257)-inflow
 Model                              9          1  9.47563536E-05       *                      1_GWF-(3,101)
 Package                            9                 -36.201974                     1_GWF-SFR-(257)-inflow
 Model                             10          1  7.23187823E-05       *                      1_GWF-(3,234)
 Package                           10                 -29.207200                     1_GWF-SFR-(257)-inflow
 Model                             11          1  7.02612277E-05       *                      1_GWF-(3,272)
 Package                           11                 -23.370145                     1_GWF-SFR-(217)-inflow
 Model                             12          1  6.21452872E-05       *                      1_GWF-(3,511)
 Package                           12                 -20.929652                     1_GWF-SFR-(217)-inflow
 Model                             13          1  6.74126572E-05       *                      1_GWF-(3,754)
 Package                           13                 -16.488212                     1_GWF-SFR-(217)-inflow
 Model                             14          1  5.09960821E-05       *                      1_GWF-(3,838)
 Package                           14                 -16.186610                     1_GWF-SFR-(217)-inflow
 Model                             15          1  5.86147392E-05       *                     1_GWF-(3,1083)
 Package                           15                 -10.908718                     1_GWF-SFR-(217)-inflow
 Model                             16          1  1.79207692E-05       *                     1_GWF-(3,1157)
 Package                           16                 -13.670182                     1_GWF-SFR-(217)-inflow
 Model                             17          1  2.91022102E-05       *                     1_GWF-(3,1002)
 Package                           17                 -2.8493580                     1_GWF-SFR-(206)-inflow
 Model                             18          1  1.30402946E-05       *                      1_GWF-(2,157)
 Package                           18                 -8.2433662                     1_GWF-SFR-(217)-inflow
 Model                             19          1  3.60410097E-05       *                     1_GWF-(2,2487)
 Package                           19                 -1.6539531                     1_GWF-SFR-(206)-inflow
 Model                             20          1  1.02468172E-05       *                      1_GWF-(3,188)
 Package                           20                 -8.7174369                     1_GWF-SFR-(217)-inflow
 Model                             21          1  5.77672860E-05       *                     1_GWF-(2,2564)
 Package                           21                 -1.3175080                     1_GWF-SFR-(206)-inflow
 Model                             22          1  9.37741015E-06       *                      1_GWF-(3,188)
 Package                           22                 -10.965609                     1_GWF-SFR-(217)-inflow
 Model                             23          1  1.52022183E-04       *                     1_GWF-(2,2565)
 Package                           23                 -1.4467291                     1_GWF-SFR-(206)-inflow
 Model                             24          1  1.28611370E-05       *                      1_GWF-(1,409)
 Package                           24                 -21.887951                     1_GWF-SFR-(206)-inflow
 Model                             25          1  1.73227828E-05       *                     1_GWF-(2,2855)
 Package                           25                 -3.8475723                     1_GWF-SFR-(217)-inflow
 Model                             26          1  1.41409538E-05       *                     1_GWF-(2,2855)
 Package                           26                 -2.5307397                     1_GWF-SFR-(217)-inflow
 Model                             27          1  1.32560173E-05       *                     1_GWF-(2,2855)
 Package                           27                 -1.2445124                     1_GWF-SFR-(206)-inflow
 Model                             28          1  7.38886430E-06       *                     1_GWF-(2,2783)
 Package                           28                 -2.4953782                     1_GWF-SFR-(217)-inflow
 Model                             29          1  1.72436803E-05       *                     1_GWF-(2,2783)
 Package                           29                -0.41406527                     1_GWF-SFR-(206)-inflow
 Model                             30          1  5.47406461E-06       *                     1_GWF-(2,2783)
 Package                           30                 -2.5561308                     1_GWF-SFR-(217)-inflow
 Model                             31          1  2.83633231E-05       *                     1_GWF-(2,2783)
 Package                           31                -0.36180543                     1_GWF-SFR-(206)-inflow
 Model                             32          1 -5.43201665E-06       *                      1_GWF-(3,152)
 Package                           32                 -3.2239463                     1_GWF-SFR-(217)-inflow
 Model                             33          1  9.85089024E-05       *                     1_GWF-(2,2783)
 Package                           33                -0.43787043                     1_GWF-SFR-(206)-inflow
 Model                             34          1  1.61281735E-05       *                      1_GWF-(1,409)
 Package                           34                 -8.9093752                     1_GWF-SFR-(206)-inflow
 Model                             35          1  1.68028368E-05       *                     1_GWF-(2,2783)
 Package                           35                 -1.1735062                     1_GWF-SFR-(217)-inflow
 Model                             36          1  5.13133412E-06       *                      1_GWF-(1,409)
 Package                           36                 -1.6509232                     1_GWF-SFR-(206)-inflow
 Model                             37          1  1.74784263E-05       *                     1_GWF-(2,2784)
 Package                           37                -0.19845361                     1_GWF-SFR-(217)-inflow
 Model                             38          1  4.40201492E-06       *                      1_GWF-(3,188)
 Package                           38                 -1.7120598                     1_GWF-SFR-(217)-inflow
 Model                             39          1  2.96242416E-05       *                     1_GWF-(2,2784)
 Package                           39                 0.27646158                     1_GWF-SFR-(266)-inflow
 Model                             40          1  4.85134220E-06       *                      1_GWF-(3,188)
 Package                           40                 -2.4344676                     1_GWF-SFR-(206)-inflow
 Model                             41          1  7.13099328E-05       *                     1_GWF-(2,2784)
 Package                           41                -0.22056607                     1_GWF-SFR-(217)-inflow
 Model                             42          1  7.34625863E-06       *                      1_GWF-(1,409)
 Package                           42                 -5.5099405                     1_GWF-SFR-(206)-inflow
 Model                             43          1  4.97649961E-06       *                     1_GWF-(2,2704)
 Package                           43                -0.56947506                     1_GWF-SFR-(217)-inflow
 Model                             44          1  2.42160189E-06       *                     1_GWF-(3,2783)
 Package                           44                -0.29342287                     1_GWF-SFR-(206)-inflow
 Model                             45          1  3.60704405E-06       *                     1_GWF-(2,2704)
 Package                           45                -0.25085688                     1_GWF-SFR-(206)-inflow
 Model                             46          1  1.83110308E-06       *                     1_GWF-(3,2704)
 Package                           46                -0.31185099                     1_GWF-SFR-(217)-inflow
 Model                             47          1  5.16253539E-06       *                     1_GWF-(2,2704)
 Package                           47                -0.17109838                     1_GWF-SFR-(206)-inflow
 Model                             48          1  1.44726033E-06       *                      1_GWF-(3,118)
 Package                           48                -0.37204218                     1_GWF-SFR-(217)-inflow
 Model                             49          1  1.20127428E-05       *                     1_GWF-(2,2704)
 Package                           49                -0.14894493                     1_GWF-SFR-(206)-inflow
 Model                             50          1  2.34892715E-06       *                      1_GWF-(3,118)
 Package                           50                -0.80448841                     1_GWF-SFR-(206)-inflow
 Model                             51          1  3.62127161E-05       *                     1_GWF-(2,2784)
 Package                           51                -0.19662036                     1_GWF-SFR-(217)-inflow
 Model                             52          1  4.05566786E-06       *                      1_GWF-(1,409)
 Package                           52                 -2.7090245                     1_GWF-SFR-(206)-inflow
 Model                             53          1  2.84988320E-06       *                     1_GWF-(2,2556)
 Package                           53                -0.15960137                     1_GWF-SFR-(217)-inflow
 Model                             54          1  8.22327905E-07       *                     1_GWF-(3,2783)
 Package                           54                -0.19864806                     1_GWF-SFR-(206)-inflow
 Model                             55          1  1.88358217E-06       *                     1_GWF-(3,2556)
 Package                           55                -0.13198511                     1_GWF-SFR-(217)-inflow
 Model                             56          1  6.52642882E-07       *                     1_GWF-(3,2783)
 Package                           56                -0.12839858                     1_GWF-SFR-(206)-inflow
 Model                             57          1  2.21204363E-06       *                     1_GWF-(3,2558)
 Package                           57            -9.57407130E-02                     1_GWF-SFR-(217)-inflow
 Model                             58          1 -5.58705182E-07       *                      1_GWF-(3,152)
 Package                           58                -0.13166255                     1_GWF-SFR-(206)-inflow
 Model                             59          1  4.30774330E-06       *                     1_GWF-(2,2704)
 Package                           59            -9.11615758E-02                     1_GWF-SFR-(217)-inflow
 Model                             60          1 -7.94412671E-07       *                      1_GWF-(3,152)
 Package                           60                -0.26493988                     1_GWF-SFR-(206)-inflow
 Model                             61          1  1.08442569E-05       *                     1_GWF-(2,2704)
 Package                           61                -0.10656081                     1_GWF-SFR-(217)-inflow
 Model                             62          1  9.84741206E-07       *                      1_GWF-(1,409)
 Package                           62                -0.79862874                     1_GWF-SFR-(206)-inflow
 Model                             63          1  3.68339468E-06       *                     1_GWF-(2,2854)
 Package                           63            -6.50712654E-02                     1_GWF-SFR-(217)-inflow
 Model                             64          1  3.51084310E-07       *                      1_GWF-(3,118)
 Package                           64                -0.29633596                     1_GWF-SFR-(217)-inflow
 Model                             65          1  2.94858779E-06       *                     1_GWF-(2,2399)
 Package                           65            -4.00502155E-02                     1_GWF-SFR-(257)-inflow
 Model                             66          1 -4.19151860E-07       *                      1_GWF-(3,222)
 Package                           66                -0.24741890                     1_GWF-SFR-(206)-inflow
 Model                             67          1  9.85598859E-07       *                     1_GWF-(3,2783)
 Package                           67            -6.48372486E-02                     1_GWF-SFR-(217)-inflow
 Model                             68          1  2.83359100E-07       *                      1_GWF-(3,185)
 Package                           68                -0.11941763                     1_GWF-SFR-(217)-inflow
 Model                             69          1  8.42682027E-07       *                     1_GWF-(2,2393)
 Package                           69            -1.98702081E-02                     1_GWF-SFR-(206)-inflow
 Model                             70          1  1.83585598E-07       *                     1_GWF-(3,3087)
 Package                           70            -4.36897561E-02                     1_GWF-SFR-(206)-inflow
 Model                             71          1  1.05874170E-06       *                     1_GWF-(3,2783)
 Package                           71            -3.31518413E-02                     1_GWF-SFR-(217)-inflow
 Model                             72          1 -2.21585310E-07       *                       1_GWF-(3,86)
 Package                           72            -8.71224154E-02                     1_GWF-SFR-(206)-inflow
 Model                             73          1  2.58136825E-06       *                     1_GWF-(2,2304)
 Package                           73            -2.25290797E-02                     1_GWF-SFR-(217)-inflow
 Model                             74          1  2.82960144E-07       *                       1_GWF-(3,53)
 Package                           74                -0.15330332                     1_GWF-SFR-(206)-inflow
 Model                             75          1  5.60000814E-07       *                     1_GWF-(3,2783)
 Package                           75            -4.81371429E-02                     1_GWF-SFR-(217)-inflow
 Model                             76          1  3.23761753E-07       *                      1_GWF-(3,504)
 Package                           76            -9.59270570E-02                     1_GWF-SFR-(217)-inflow
 Model                             77          1  3.87150465E-07       *                     1_GWF-(2,2483)
 Package                           77             1.85920090E-02                     1_GWF-SFR-(217)-inflow
 Model                             78          1  1.60791160E-07       *                     1_GWF-(3,2292)
 Package                           78            -3.06173902E-02                     1_GWF-SFR-(217)-inflow
 Model                             79          1  3.18318740E-07       *                     1_GWF-(3,2855)
 Package                           79            -1.95262660E-02                     1_GWF-SFR-(206)-inflow
 Model                             80          1  1.19610633E-07       *                     1_GWF-(2,2292)
 Package                           80            -1.43812009E-02                     1_GWF-SFR-(217)-inflow
 Model                             81          1  3.22638556E-07       *                     1_GWF-(3,2855)
 Package                           81            -2.11566241E-02                     1_GWF-SFR-(206)-inflow
 Model                             82          1  1.01445352E-07       *                     1_GWF-(2,2970)
 Package                           82            -2.19188893E-02                     1_GWF-SFR-(217)-inflow
 Model                             83          1  4.04132521E-07       *                     1_GWF-(3,2783)
 Package                           83            -1.68837131E-02                     1_GWF-SFR-(206)-inflow
 Model                             84          1  9.61341868E-08       *                      1_GWF-(3,188)
 Package                           84            -3.05232839E-02                     1_GWF-SFR-(217)-inflow
 Model                             85          1  8.45715192E-07       *                     1_GWF-(2,2704)
 Package                           85            -1.35210264E-02                     1_GWF-SFR-(206)-inflow
 Model                             86          1  1.33047223E-07       *                      1_GWF-(3,188)
 Package                           86            -6.11410443E-02                     1_GWF-SFR-(217)-inflow
 Model                             87          1  1.91177153E-06       *                     1_GWF-(2,2704)
 Package                           87            -1.40620717E-02                     1_GWF-SFR-(206)-inflow
 Model                             88          1  1.86479497E-07       *                      1_GWF-(1,409)
 Package                           88                -0.13714136                     1_GWF-SFR-(206)-inflow
 Model                             89          1  1.86012045E-07       *                     1_GWF-(3,2783)
 Package                           89            -1.82217055E-02                     1_GWF-SFR-(217)-inflow
 Model                             90          1  4.85438250E-08       *                     1_GWF-(3,2969)
 Package                           90            -1.63750704E-02                     1_GWF-SFR-(217)-inflow
 Model                             91          1  2.17561706E-07       *                     1_GWF-(3,2855)
 Package                           91            -4.65533011E-03       *             1_GWF-SFR-(257)-inflow
 ----------------------------------------------------------------------------------------------------------


 91 CALLS TO NUMERICAL SOLUTION IN TIME STEP 48 STRESS PERIOD 2
 115 TOTAL ITERATIONS

 MEMORY MANAGER TOTAL STORAGE BY DATA TYPE, IN MEGABYTES
 -------------------------------
                    ALLOCATED   
 DATA TYPE           MEMORY     
 -------------------------------
 Character        0.13808900    
 Logical          4.40000000E-05
 Integer          2.0229480     
 Real             4.8738400     
 -------------------------------
 Total            7.0349210     
 -------------------------------


 
 Run end date and time (yyyy/mm/dd hh:mm:ss): 2021/11/03 15:11:22
 Elapsed run time: 16.405 Seconds
 Normal termination of simulation.
