                                   MODFLOW 6
                U.S. GEOLOGICAL SURVEY MODULAR HYDROLOGIC MODEL
                            VERSION 6.2.1 02/18/2021

   MODFLOW 6 compiled Feb 18 2021 21:14:51 with IFORT compiler (ver. 19.10.3)

This software has been approved for release by the U.S. Geological 
Survey (USGS). Although the software has been subjected to rigorous 
review, the USGS reserves the right to update the software as needed 
pursuant to further analysis and review. No warranty, expressed or 
implied, is made by the USGS or the U.S. Government as to the 
functionality of the software and related material nor shall the 
fact of release constitute any such warranty. Furthermore, the 
software is released on condition that neither the USGS nor the U.S. 
Government shall be held liable for any damages resulting from its 
authorized or unauthorized use. Also refer to the USGS Water 
Resources Software User Rights Notice for complete use, copyright, 
and distribution information.


System command used to initiate simulation:
..\bins\win\mf6

MODFLOW was compiled using uniform precision.

Real Variables
  KIND: 8
  TINY (smallest non-zero value):    2.225074-308
  HUGE (largest value):    1.797693+308
  PRECISION: 15
  BIT SIZE: 64

Integer Variables
  KIND: 4
  HUGE (largest value): 2147483647
  BIT SIZE: 32

Long Integer Variables
  KIND: 8
  HUGE (largest value): 9223372036854775807
  BIT SIZE: 64

Logical Variables
  KIND: 4
  BIT SIZE: 32
 

 OPENED mfsim.nam
 FILE TYPE:NAM   UNIT 1001   STATUS:OLD                 
 FORMAT:FORMATTED              ACCESS:SEQUENTIAL          
 ACTION:READ                

 # File generated by Flopy version 3.3.5 on 11/06/2021 at 11:50:12.

 READING SIMULATION OPTIONS
 END OF SIMULATION OPTIONS

 READING SIMULATION TIMING

 OPENED experimental.tdis
 FILE TYPE:TDIS   UNIT 1002   STATUS:OLD                 
 FORMAT:FORMATTED              ACCESS:SEQUENTIAL          
 ACTION:READ                


 TDIS -- TEMPORAL DISCRETIZATION PACKAGE,
 VERSION 1 : 11/13/2014 - INPUT READ FROM UNIT 1002
 # File generated by Flopy version 3.3.5 on 11/06/2021 at 11:50:12.
 PROCESSING TDIS OPTIONS
    SIMULATION TIME UNIT IS DAYS
 END OF TDIS OPTIONS
 PROCESSING TDIS DIMENSIONS
    2 STRESS PERIOD(S) IN SIMULATION
 END OF TDIS DIMENSIONS
 PROCESSING TDIS PERIODDATA


 STRESS PERIOD     LENGTH       TIME STEPS     MULTIPLIER FOR DELT
 ----------------------------------------------------------------------------
        1         1.000000          1                    1.000
        2         1460.000         48                    1.000
 END OF TDIS PERIODDATA
 END OF SIMULATION TIMING

 READING SIMULATION MODELS
    GWF6 model EXPERIMENTAL will be created as model 1
 END OF SIMULATION MODELS

 READING SIMULATION EXCHANGES
 END OF SIMULATION EXCHANGES

 READING SOLUTIONGROUP

 Creating solution: SLN_1           

 OPENED experimental.ims
 FILE TYPE:IMS   UNIT 1014   STATUS:OLD                 
 FORMAT:FORMATTED              ACCESS:SEQUENTIAL          
 ACTION:READ                

 END OF SIMULATION SOLUTIONGROUP

 IMS -- ITERATIVE MODEL SOLUTION PACKAGE, VERSION 6, 4/28/2017
         INPUT READ FROM UNIT 1014
 # File generated by Flopy version 3.3.5 on 11/06/2021 at 11:50:12.

 PROCESSING IMS OPTIONS
 SIMPLE OPTION:
 DEFAULT SOLVER INPUT VALUES FOR FAST SOLUTIONS
 END OF IMS OPTIONS

 PROCESSING IMS NONLINEAR
 END OF IMS NONLINEAR DATA
 ***UNDER-RELAXATION WILL NOT BE USED***
 
 ***IMS LINEAR SOLVER WILL BE USED***

 IMSLINEAR -- UNSTRUCTURED LINEAR SOLUTION PACKAGE, VERSION 8, 04/28/2017

 PROCESSING LINEAR DATA
 END OF LINEAR DATA
 
 OUTER ITERATION CONVERGENCE CRITERION    (DVCLOSE) =    0.100000E-01
 MAXIMUM NUMBER OF OUTER ITERATIONS        (MXITER) = 750
 SOLVER PRINTOUT INDEX                     (IPRIMS) = 1
 NONLINEAR ITERATION METHOD            (NONLINMETH) = 0
 LINEAR SOLUTION METHOD                   (LINMETH) = 1

       SOLUTION BY THE BICONJUGATE-GRADIENT STABILIZED METHOD
 ------------------------------------------------------------------
 MAXIMUM OF 750 CALLS OF SOLUTION ROUTINE
 MAXIMUM OF 50 INTERNAL ITERATIONS PER CALL TO SOLUTION ROUTINE
 LINEAR ACCELERATION METHOD            = BCGS      
 MATRIX PRECONDITIONING TYPE           = INCOMPLETE LU       
 MATRIX SCALING APPROACH               = NO SCALING          
 MATRIX REORDERING APPROACH            = ORIGINAL ORDERING        
 NUMBER OF ORTHOGONALIZATIONS          = 0
 HEAD CHANGE CRITERION FOR CLOSURE     =    0.10000E-02
 RESIDUAL CHANGE CRITERION FOR CLOSURE =    0.10000E+00
 RESIDUAL CONVERGENCE OPTION           = 0
 RESIDUAL CONVERGENCE NORM             = INFINITY NORM   
 RELAXATION FACTOR                     =    0.00000E+00



1
                            STRESS PERIOD NO.    1, LENGTH =   1.000000    
                            -----------------------------------------------

                              NUMBER OF TIME STEPS =     1

                               MULTIPLIER FOR DELT =     1.000

                            INITIAL TIME STEP SIZE =   1.000000    



 PSEUDO-TRANSIENT CONTINUATION WILL BE APPLIED TO MODEL 1 ("EXPERIMENTAL") DURING THIS TIME STEP

 OUTER ITERATION SUMMARY
 ----------------------------------------------------------------------------------------------------------
                                OUTER      INNER                    STEP   MAXIMUM CHANGE MODEL-(CELLID) OR
 OUTER ITERATION STEP       ITERATION  ITERATION  MAXIMUM CHANGE SUCCESS             MODEL-PACKAGE-(NUMBER)
 ----------------------------------------------------------------------------------------------------------
 Model                              1          6  1.21835605E-02                              1_GWF-(1,732)
 Model                              2          6  1.14660046E-02                              1_GWF-(1,732)
 Model                              3          5  9.10435405E-03    *PTC                      1_GWF-(1,732)
 Model                              4          5  8.78398140E-03    *PTC                     1_GWF-(3,2271)
 Model                              5          5  8.09304169E-03    *PTC                     1_GWF-(3,2271)
 Model                              6          5  6.68772739E-03    *PTC                     1_GWF-(3,2272)
 Model                              7          2  2.52013698E-03    *PTC                     1_GWF-(1,2752)
 Model                              8          1  4.15973149E-04    *PTC                     1_GWF-(3,2277)
 Model                              9          1  7.35759378E-04    *PTC                     1_GWF-(3,2273)
 Model                             10          1  6.20253969E-04    *PTC                     1_GWF-(3,2363)
 Model                             11          1  7.09715673E-04    *PTC                     1_GWF-(3,2271)
 Model                             12          1  4.98815575E-04    *PTC                     1_GWF-(1,2752)
 Model                             13          1  6.86979964E-04    *PTC                     1_GWF-(1,2271)
 Model                             14          1  4.31993947E-04    *PTC                     1_GWF-(1,2752)
 Model                             15          1  6.60173005E-04    *PTC                     1_GWF-(1,2201)
 Model                             16          1  3.63031475E-04    *PTC                     1_GWF-(1,2752)
 Model                             17          1  6.31705437E-04    *PTC                     1_GWF-(1,1991)
 Model                             18          1  3.05263355E-04    *PTC                     1_GWF-(1,2752)
 Model                             19          1  5.96021863E-04    *PTC                     1_GWF-(1,1991)
 Model                             20          1  2.58267038E-04    *PTC                     1_GWF-(1,2752)
 Model                             21          1  5.45909545E-04    *PTC                     1_GWF-(1,1991)
 Model                             22          1  2.17368788E-04    *PTC                     1_GWF-(1,2752)
 Model                             23          1  4.79876742E-04    *PTC                     1_GWF-(1,1991)
 Model                             24          1  1.80357835E-04    *PTC                     1_GWF-(1,2752)
 Model                             25          1  4.05407271E-04    *PTC                     1_GWF-(1,1991)
 Model                             26          1  1.47396201E-04    *PTC                     1_GWF-(1,2752)
 Model                             27          1  3.32501344E-04    *PTC                     1_GWF-(1,1991)
 Model                             28          1  1.18803229E-04    *PTC                     1_GWF-(1,2752)
 Model                             29          1  2.68004332E-04    *PTC                     1_GWF-(1,1991)
 Model                             30          1  9.47546067E-05    *PTC                     1_GWF-(1,2752)
 Model                             31          1  2.13638918E-04       *                     1_GWF-(1,1991)
 Package                           31                 -1.1551603                     1_GWF-SFR-(206)-inflow
 Model                             32          1  7.49973546E-05    *PTC                     1_GWF-(1,2752)
 Model                             33          1  1.68818443E-04       *                     1_GWF-(1,1991)
 Package                           33                -0.90485659                     1_GWF-SFR-(206)-inflow
 Model                             34          1  5.90181392E-05       *                     1_GWF-(1,2752)
 Package                           34                 -3.3270923                     1_GWF-SFR-(206)-inflow
 Model                             35          1  1.32671272E-04       *                     1_GWF-(1,1991)
 Package                           35                -0.70749972                     1_GWF-SFR-(206)-inflow
 Model                             36          1  4.62668294E-05       *                     1_GWF-(1,2752)
 Package                           36                 -2.6159692                     1_GWF-SFR-(206)-inflow
 Model                             37          1  1.03947486E-04       *                     1_GWF-(1,1991)
 Package                           37                -0.55260425                     1_GWF-SFR-(206)-inflow
 Model                             38          1  3.61868103E-05       *                     1_GWF-(1,2752)
 Package                           38                 -2.0505983                     1_GWF-SFR-(206)-inflow
 Model                             39          1  8.12626716E-05       *                     1_GWF-(1,1991)
 Package                           39                -0.43125470                     1_GWF-SFR-(206)-inflow
 Model                             40          1  2.82538155E-05       *                     1_GWF-(1,2752)
 Package                           40                 -1.6040541                     1_GWF-SFR-(206)-inflow
 Model                             41          1  6.34522111E-05       *                     1_GWF-(1,1991)
 Package                           41                -0.33620213                     1_GWF-SFR-(206)-inflow
 Model                             42          1  2.20391059E-05       *                     1_GWF-(1,2752)
 Package                           42                 -1.2531107                     1_GWF-SFR-(206)-inflow
 Model                             43          1  4.94695235E-05       *                     1_GWF-(1,1991)
 Package                           43                -0.26201919                     1_GWF-SFR-(206)-inflow
 Model                             44          1  1.71724462E-05       *                     1_GWF-(1,2752)
 Package                           44                -0.97766812                     1_GWF-SFR-(206)-inflow
 Model                             45          1  3.85598950E-05       *                     1_GWF-(1,1991)
 Package                           45                -0.20401897                     1_GWF-SFR-(206)-inflow
 Model                             46          1  1.33772847E-05       *                     1_GWF-(1,2752)
 Package                           46                -0.76237865                     1_GWF-SFR-(206)-inflow
 Model                             47          1  3.00122098E-05       *                     1_GWF-(1,1991)
 Package                           47                -0.15889458                     1_GWF-SFR-(206)-inflow
 Model                             48          1  1.04099596E-05       *                     1_GWF-(1,2752)
 Package                           48                -0.59389572                     1_GWF-SFR-(206)-inflow
 Model                             49          1  2.33773912E-05       *                     1_GWF-(1,1991)
 Package                           49                -0.12359925                     1_GWF-SFR-(206)-inflow
 Model                             50          1  8.10445630E-06       *                     1_GWF-(1,2752)
 Package                           50                -0.46269932                     1_GWF-SFR-(206)-inflow
 Model                             51          1  1.81713706E-05       *                     1_GWF-(1,1991)
 Package                           51            -9.62463094E-02                     1_GWF-SFR-(206)-inflow
 Model                             52          1  6.30016262E-06       *                     1_GWF-(1,2752)
 Package                           52                -0.36007985                     1_GWF-SFR-(206)-inflow
 Model                             53          1  1.41561629E-05       *                     1_GWF-(1,1991)
 Package                           53            -7.47815777E-02                     1_GWF-SFR-(206)-inflow
 Model                             54          1  4.90478089E-06       *                     1_GWF-(1,2752)
 Package                           54                -0.28044303                     1_GWF-SFR-(206)-inflow
 Model                             55          1  1.09860754E-05       *                     1_GWF-(1,1991)
 Package                           55            -5.82607841E-02                     1_GWF-SFR-(206)-inflow
 Model                             56          1  3.80802828E-06       *                     1_GWF-(1,2752)
 Package                           56                -0.21803701                     1_GWF-SFR-(206)-inflow
 Model                             57          1  8.56844960E-06       *                     1_GWF-(1,1991)
 Package                           57            -4.51853490E-02                     1_GWF-SFR-(206)-inflow
 Model                             58          1  2.96679863E-06       *                     1_GWF-(1,2752)
 Package                           58                -0.16984190                     1_GWF-SFR-(206)-inflow
 Model                             59          1  6.63170846E-06       *                     1_GWF-(1,1991)
 Package                           59            -3.52632304E-02                     1_GWF-SFR-(206)-inflow
 Model                             60          1  2.29861590E-06       *                     1_GWF-(1,2752)
 Package                           60                -0.13187745                     1_GWF-SFR-(206)-inflow
 Model                             61          1  5.18785436E-06       *                     1_GWF-(1,1991)
 Package                           61            -2.72537979E-02                     1_GWF-SFR-(206)-inflow
 Model                             62          1  1.79465931E-06       *                     1_GWF-(1,2752)
 Package                           62                -0.10281529                     1_GWF-SFR-(206)-inflow
 Model                             63          1  3.99410283E-06       *                     1_GWF-(1,1991)
 Package                           63            -2.13616090E-02                     1_GWF-SFR-(206)-inflow
 Model                             64          1  1.38489617E-06       *                     1_GWF-(1,2752)
 Package                           64            -7.96603574E-02                     1_GWF-SFR-(206)-inflow
 Model                             65          1  3.14579555E-06       *                     1_GWF-(1,1991)
 Package                           65            -1.63888528E-02                     1_GWF-SFR-(206)-inflow
 Model                             66          1  1.08676605E-06       *                     1_GWF-(1,2752)
 Package                           66            -6.22388315E-02                     1_GWF-SFR-(206)-inflow
 Model                             67          1  2.39558091E-06       *                     1_GWF-(1,1991)
 Package                           67            -1.29772568E-02                     1_GWF-SFR-(206)-inflow
 Model                             68          1  8.31669638E-07       *                     1_GWF-(1,2752)
 Package                           68            -4.80261514E-02                     1_GWF-SFR-(206)-inflow
 Model                             69          1  1.91487905E-06       *                     1_GWF-(1,1991)
 Package                           69            -9.79698660E-03       *             1_GWF-SFR-(206)-inflow
 ----------------------------------------------------------------------------------------------------------


 69 CALLS TO NUMERICAL SOLUTION IN TIME STEP 1 STRESS PERIOD 1
 96 TOTAL ITERATIONS
1
                            STRESS PERIOD NO.    2, LENGTH =   1460.000    
                            -----------------------------------------------

                              NUMBER OF TIME STEPS =    48

                               MULTIPLIER FOR DELT =     1.000

                            INITIAL TIME STEP SIZE =   30.41667    

 OUTER ITERATION SUMMARY
 ----------------------------------------------------------------------------------------------------------
                                OUTER      INNER                    STEP   MAXIMUM CHANGE MODEL-(CELLID) OR
 OUTER ITERATION STEP       ITERATION  ITERATION  MAXIMUM CHANGE SUCCESS             MODEL-PACKAGE-(NUMBER)
 ----------------------------------------------------------------------------------------------------------
 Model                              1          1 -5.05760330E-05       *                     1_GWF-(1,2935)
 Package                            1                 -973154.64                     1_GWF-SFR-(206)-inflow
 Model                              2          1 -6.92820699E-05       *                     1_GWF-(1,2935)
 Package                            2                  30.647734                     1_GWF-SFR-(206)-inflow
 Model                              3          1 -2.23736021E-05       *                     1_GWF-(1,2752)
 Package                            3                  59.439736                     1_GWF-SFR-(206)-inflow
 Model                              4          1 -5.41021053E-05       *                     1_GWF-(3,1388)
 Package                            4                  25.237653                     1_GWF-SFR-(206)-inflow
 Model                              5          1 -2.20820012E-05       *                     1_GWF-(1,2752)
 Package                            5                  49.110702                     1_GWF-SFR-(206)-inflow
 Model                              6          1 -4.94497899E-05       *                     1_GWF-(2,1763)
 Package                            6                  17.283355                     1_GWF-SFR-(206)-inflow
 Model                              7          1 -1.99506281E-05       *                     1_GWF-(1,2752)
 Package                            7                  41.838800                     1_GWF-SFR-(206)-inflow
 Model                              8          1 -4.37541409E-05       *                     1_GWF-(3,1763)
 Package                            8                  12.319223                     1_GWF-SFR-(206)-inflow
 Model                              9          1 -1.70151941E-05       *                     1_GWF-(1,2752)
 Package                            9                  34.228827                     1_GWF-SFR-(206)-inflow
 Model                             10          1 -3.80449390E-05       *                     1_GWF-(2,1915)
 Package                           10                  8.7541308                     1_GWF-SFR-(206)-inflow
 Model                             11          1 -1.41125728E-05       *                     1_GWF-(1,2752)
 Package                           11                  28.203806                     1_GWF-SFR-(206)-inflow
 Model                             12          1 -3.11469886E-05       *                     1_GWF-(3,2062)
 Package                           12                  6.3410211                     1_GWF-SFR-(206)-inflow
 Model                             13          1 -1.12167224E-05       *                     1_GWF-(1,2752)
 Package                           13                  22.671721                     1_GWF-SFR-(206)-inflow
 Model                             14          1 -2.55866114E-05       *                     1_GWF-(2,1990)
 Package                           14                  4.6129638                     1_GWF-SFR-(206)-inflow
 Model                             15          1 -8.77394228E-06       *                     1_GWF-(1,2752)
 Package                           15                  18.101353                     1_GWF-SFR-(206)-inflow
 Model                             16          1 -2.01182125E-05       *                     1_GWF-(3,2270)
 Package                           16                  3.4202587                     1_GWF-SFR-(206)-inflow
 Model                             17          1 -6.67861056E-06       *                     1_GWF-(1,2752)
 Package                           17                  13.927628                     1_GWF-SFR-(206)-inflow
 Model                             18          1 -1.52092785E-05       *                     1_GWF-(2,2061)
 Package                           18                  2.5180395                     1_GWF-SFR-(206)-inflow
 Model                             19          1 -5.00591747E-06       *                     1_GWF-(1,2752)
 Package                           19                  10.355035                     1_GWF-SFR-(206)-inflow
 Model                             20          1 -1.18577951E-05       *                     1_GWF-(3,2273)
 Package                           20                  1.8664863                     1_GWF-SFR-(206)-inflow
 Model                             21          1 -3.67481331E-06       *                     1_GWF-(1,2752)
 Package                           21                  7.6108676                     1_GWF-SFR-(206)-inflow
 Model                             22          1 -8.64345475E-06       *                     1_GWF-(3,1911)
 Package                           22                  1.3450443                     1_GWF-SFR-(206)-inflow
 Model                             23          1 -2.68294392E-06       *                     1_GWF-(1,2752)
 Package                           23                  5.3839678                     1_GWF-SFR-(206)-inflow
 Model                             24          1 -7.88051372E-06       *                     1_GWF-(3,2297)
 Package                           24                  1.0163710                     1_GWF-SFR-(206)-inflow
 Model                             25          1 -1.91788726E-06       *                     1_GWF-(1,2752)
 Package                           25                  3.9325331                     1_GWF-SFR-(206)-inflow
 Model                             26          1 -5.31519663E-06       *                     1_GWF-(3,1834)
 Package                           26                 0.69563187                     1_GWF-SFR-(206)-inflow
 Model                             27          1 -2.08746167E-06       *                     1_GWF-(3,2297)
 Package                           27                  2.5597723                     1_GWF-SFR-(206)-inflow
 Model                             28          1 -4.88410359E-06       *                     1_GWF-(3,2297)
 Package                           28                 0.61679539                     1_GWF-SFR-(206)-inflow
 Model                             29          1 -9.90491401E-07       *                     1_GWF-(1,2752)
 Package                           29                  1.9501439                     1_GWF-SFR-(206)-inflow
 Model                             30          1 -3.17419133E-06       *                     1_GWF-(3,1834)
 Package                           30                 0.33722265                     1_GWF-SFR-(206)-inflow
 Model                             31          1 -1.21303776E-06       *                     1_GWF-(3,2297)
 Package                           31                  1.5492128                     1_GWF-SFR-(206)-inflow
 Model                             32          1 -2.41293998E-06       *                     1_GWF-(3,2297)
 Package                           32                 0.36365766                     1_GWF-SFR-(206)-inflow
 Model                             33          1 -5.59943317E-07       *                     1_GWF-(1,2752)
 Package                           33                  1.0198278                     1_GWF-SFR-(206)-inflow
 Model                             34          1 -1.56007820E-06       *                     1_GWF-(3,1833)
 Package                           34                 0.20426930                     1_GWF-SFR-(206)-inflow
 Model                             35          1 -4.68554475E-07       *                     1_GWF-(1,2752)
 Package                           35                 0.94279539                     1_GWF-SFR-(206)-inflow
 Model                             36          1 -1.29247340E-06       *                     1_GWF-(3,2296)
 Package                           36                 0.16521389                     1_GWF-SFR-(206)-inflow
 Model                             37          1 -3.36134121E-07       *                     1_GWF-(1,2752)
 Package                           37                 0.70454277                     1_GWF-SFR-(206)-inflow
 Model                             38          1 -1.01211469E-06       *                     1_GWF-(3,1833)
 Package                           38                 0.11335143                     1_GWF-SFR-(206)-inflow
 Model                             39          1 -2.78389393E-07       *                     1_GWF-(1,2752)
 Package                           39                 0.58796966                     1_GWF-SFR-(206)-inflow
 Model                             40          1 -8.98306411E-07       *                     1_GWF-(3,2296)
 Package                           40                 0.10058724                     1_GWF-SFR-(206)-inflow
 Model                             41          1 -2.02351004E-07       *                     1_GWF-(1,2752)
 Package                           41                 0.43004693                     1_GWF-SFR-(206)-inflow
 Model                             42          1 -6.47874515E-07       *                     1_GWF-(3,1833)
 Package                           42             7.18869710E-02                     1_GWF-SFR-(206)-inflow
 Model                             43          1 -2.19073513E-07       *                     1_GWF-(3,2297)
 Package                           43                 0.31018049                     1_GWF-SFR-(206)-inflow
 Model                             44          1 -5.30231887E-07       *                     1_GWF-(3,2297)
 Package                           44             7.22474892E-02                     1_GWF-SFR-(206)-inflow
 Model                             45          1 -1.13685360E-07       *                     1_GWF-(1,2752)
 Package                           45                 0.22651103                     1_GWF-SFR-(206)-inflow
 Model                             46          1 -3.57653818E-07       *                     1_GWF-(3,1833)
 Package                           46             4.04505415E-02                     1_GWF-SFR-(206)-inflow
 Model                             47          1 -1.13440393E-07       *                     1_GWF-(3,2297)
 Package                           47                 0.17829258                     1_GWF-SFR-(206)-inflow
 Model                             48          1 -2.87975439E-07       *                     1_GWF-(3,2297)
 Package                           48             4.08376839E-02                     1_GWF-SFR-(206)-inflow
 Model                             49          1 -6.69730582E-08       *                     1_GWF-(1,2752)
 Package                           49                 0.13403573                     1_GWF-SFR-(206)-inflow
 Model                             50          1 -2.04952556E-07       *                     1_GWF-(3,1833)
 Package                           50             2.46848728E-02                     1_GWF-SFR-(206)-inflow
 Model                             51          1 -5.92093556E-08       *                     1_GWF-(3,2297)
 Package                           51                 0.10793955                     1_GWF-SFR-(206)-inflow
 Model                             52          1 -1.74699494E-07       *                     1_GWF-(3,2296)
 Package                           52             2.33765028E-02                     1_GWF-SFR-(206)-inflow
 Model                             53          1 -4.10672953E-08       *                     1_GWF-(1,2752)
 Package                           53             8.53974914E-02                     1_GWF-SFR-(206)-inflow
 Model                             54          1 -1.30894222E-07       *                     1_GWF-(3,1832)
 Package                           54             1.49346433E-02                     1_GWF-SFR-(206)-inflow
 Model                             55          1 -3.86984595E-08       *                     1_GWF-(3,2297)
 Package                           55             6.51305646E-02                     1_GWF-SFR-(206)-inflow
 Model                             56          1 -1.09856273E-07       *                     1_GWF-(3,2296)
 Package                           56             1.49456610E-02                     1_GWF-SFR-(206)-inflow
 Model                             57          1 -2.44317846E-08       *                     1_GWF-(1,2752)
 Package                           57             5.01935898E-02                     1_GWF-SFR-(206)-inflow
 Model                             58          1 -7.91547166E-08       *                     1_GWF-(3,1832)
 Package                           58             8.83864801E-03       *             1_GWF-SFR-(206)-inflow
 ----------------------------------------------------------------------------------------------------------


 58 CALLS TO NUMERICAL SOLUTION IN TIME STEP 1 STRESS PERIOD 2
 58 TOTAL ITERATIONS

 OUTER ITERATION SUMMARY
 ----------------------------------------------------------------------------------------------------------
                                OUTER      INNER                    STEP   MAXIMUM CHANGE MODEL-(CELLID) OR
 OUTER ITERATION STEP       ITERATION  ITERATION  MAXIMUM CHANGE SUCCESS             MODEL-PACKAGE-(NUMBER)
 ----------------------------------------------------------------------------------------------------------
 Model                              1         11 -3.05597659E-02                             1_GWF-(1,1764)
 Model                              2          3 -8.95833540E-03       *                     1_GWF-(1,2752)
 Package                            2                  15854.993                     1_GWF-SFR-(206)-inflow
 Model                              3          1 -4.25383243E-04       *                       1_GWF-(1,36)
 Package                            3                  7391.3044                     1_GWF-SFR-(206)-inflow
 Model                              4          1 -2.15919268E-04       *                       1_GWF-(1,63)
 Package                            4                  2579.3964                     1_GWF-SFR-(206)-inflow
 Model                              5          1 -2.03302506E-04       *                     1_GWF-(1,2831)
 Package                            5                  1149.8155                     1_GWF-SFR-(206)-inflow
 Model                              6          1 -2.35652326E-04       *                     1_GWF-(1,2831)
 Package                            6                  666.10732                     1_GWF-SFR-(206)-inflow
 Model                              7          1 -2.43404965E-04       *                     1_GWF-(1,2831)
 Package                            7                  476.19086                     1_GWF-SFR-(206)-inflow
 Model                              8          1 -2.43106504E-04       *                     1_GWF-(1,2751)
 Package                            8                  357.00645                     1_GWF-SFR-(206)-inflow
 Model                              9          1 -2.27557614E-04       *                     1_GWF-(1,2751)
 Package                            9                  285.64160                     1_GWF-SFR-(206)-inflow
 Model                             10          1 -2.14854614E-04       *                     1_GWF-(1,2755)
 Package                           10                  229.58379                     1_GWF-SFR-(206)-inflow
 Model                             11          1 -1.92733308E-04       *                     1_GWF-(1,2757)
 Package                           11                  193.88589                     1_GWF-SFR-(206)-inflow
 Model                             12          1 -1.79164151E-04       *                     1_GWF-(1,2757)
 Package                           12                  162.15943                     1_GWF-SFR-(206)-inflow
 Model                             13          1 -1.57108235E-04       *                     1_GWF-(1,2680)
 Package                           13                  142.37993                     1_GWF-SFR-(206)-inflow
 Model                             14          1 -1.46049215E-04       *                     1_GWF-(1,2679)
 Package                           14                  121.02065                     1_GWF-SFR-(206)-inflow
 Model                             15          1 -1.23900109E-04       *                     1_GWF-(1,2615)
 Package                           15                  109.21477                     1_GWF-SFR-(206)-inflow
 Model                             16          1 -1.17221944E-04       *                     1_GWF-(1,2536)
 Package                           16                  92.290056                     1_GWF-SFR-(206)-inflow
 Model                             17          1 -9.51323249E-05       *                     1_GWF-(1,2537)
 Package                           17                  85.988432                     1_GWF-SFR-(206)-inflow
 Model                             18          1 -9.47526358E-05       *                     1_GWF-(1,2537)
 Package                           18                  70.326203                     1_GWF-SFR-(206)-inflow
 Model                             19          1 -7.00725185E-05       *                     1_GWF-(1,2457)
 Package                           19                  69.716269                     1_GWF-SFR-(206)-inflow
 Model                             20          1 -7.93801441E-05       *                     1_GWF-(1,2459)
 Package                           20                  51.863680                     1_GWF-SFR-(206)-inflow
 Model                             21          1 -4.62216269E-05       *                     1_GWF-(1,2459)
 Package                           21                  60.043835                     1_GWF-SFR-(206)-inflow
 Model                             22          1 -6.84988062E-05       *                     1_GWF-(2,2362)
 Package                           22                  33.364382                     1_GWF-SFR-(206)-inflow
 Model                             23          1 -2.29957555E-05       *                     1_GWF-(2,2363)
 Package                           23                  56.046377                     1_GWF-SFR-(206)-inflow
 Model                             24          1 -5.58603363E-05       *                     1_GWF-(2,2363)
 Package                           24                  13.557161                     1_GWF-SFR-(206)-inflow
 Model                             25          1 -1.33121723E-05       *                     1_GWF-(2,2364)
 Package                           25                  47.471255                     1_GWF-SFR-(206)-inflow
 Model                             26          1 -6.28087161E-05       *                     1_GWF-(2,2364)
 Package                           26                  6.2543549                     1_GWF-SFR-(206)-inflow
 Model                             27          1 -9.31991724E-06       *                      1_GWF-(2,853)
 Package                           27                  48.781012                     1_GWF-SFR-(206)-inflow
 Model                             28          1 -6.62609604E-05       *                     1_GWF-(1,2365)
 Package                           28                  5.2484957                     1_GWF-SFR-(206)-inflow
 Model                             29          1 -6.07845391E-06       *                     1_GWF-(3,1783)
 Package                           29                  48.734868                     1_GWF-SFR-(206)-inflow
 Model                             30          1 -4.49161193E-05       *                     1_GWF-(1,2268)
 Package                           30                  6.2683235                     1_GWF-SFR-(217)-inflow
 Model                             31          1 -3.82559099E-06       *                     1_GWF-(2,2200)
 Package                           31                  31.500629                     1_GWF-SFR-(206)-inflow
 Model                             32          1 -3.34309017E-05       *                     1_GWF-(2,2200)
 Package                           32                  6.0932122                     1_GWF-SFR-(206)-inflow
 Model                             33          1 -2.61518633E-06       *                      1_GWF-(3,188)
 Package                           33                  23.316332                     1_GWF-SFR-(206)-inflow
 Model                             34          1 -2.61724727E-05       *                     1_GWF-(2,2200)
 Package                           34                  4.3044708                     1_GWF-SFR-(206)-inflow
 Model                             35          1 -1.94757547E-06       *                      1_GWF-(3,118)
 Package                           35                  18.542440                     1_GWF-SFR-(206)-inflow
 Model                             36          1 -1.63409773E-05       *                     1_GWF-(2,2200)
 Package                           36                  2.5517665                     1_GWF-SFR-(206)-inflow
 Model                             37          1 -1.27210677E-06       *                      1_GWF-(3,118)
 Package                           37                  12.232427                     1_GWF-SFR-(206)-inflow
 Model                             38          1 -1.04125981E-05       *                     1_GWF-(2,2201)
 Package                           38                  1.5035492                     1_GWF-SFR-(206)-inflow
 Model                             39          1 -1.16815960E-06       *                      1_GWF-(3,118)
 Package                           39                  6.8527526                     1_GWF-SFR-(206)-inflow
 Model                             40          1 -4.35636713E-06       *                     1_GWF-(3,2059)
 Package                           40                  1.2119500                     1_GWF-SFR-(206)-inflow
 Model                             41          1 -8.25694627E-07       *                     1_GWF-(3,1409)
 Package                           41                  3.9917837                     1_GWF-SFR-(206)-inflow
 Model                             42          1 -5.46969321E-06       *                     1_GWF-(2,2269)
 Package                           42                 0.51881954                     1_GWF-SFR-(206)-inflow
 Model                             43          1 -1.71661938E-06       *                      1_GWF-(3,113)
 Package                           43                  2.8948046                     1_GWF-SFR-(206)-inflow
 Model                             44          1 -8.12081964E-07       *                     1_GWF-(3,1913)
 Package                           44                 0.88724873                     1_GWF-SFR-(217)-inflow
 Model                             45          1 -6.30132888E-07       *                     1_GWF-(3,2269)
 Package                           45                  1.1024173                     1_GWF-SFR-(206)-inflow
 Model                             46          1 -1.68225557E-06       *                     1_GWF-(2,2200)
 Package                           46                 0.48026826                     1_GWF-SFR-(206)-inflow
 Model                             47          1 -2.88099358E-07       *                     1_GWF-(3,2200)
 Package                           47                  1.3873889                     1_GWF-SFR-(206)-inflow
 Model                             48          1 -1.48748009E-06       *                     1_GWF-(2,2200)
 Package                           48                 0.17122620                     1_GWF-SFR-(206)-inflow
 Model                             49          1 -2.82320258E-07       *                      1_GWF-(3,118)
 Package                           49                  1.1634257                     1_GWF-SFR-(206)-inflow
 Model                             50          1 -1.45956128E-06       *                     1_GWF-(2,2200)
 Package                           50                 0.11596276                     1_GWF-SFR-(206)-inflow
 Model                             51          1 -2.39891108E-07       *                      1_GWF-(3,118)
 Package                           51                  1.1323749                     1_GWF-SFR-(206)-inflow
 Model                             52          1 -1.18699762E-06       *                     1_GWF-(3,2269)
 Package                           52                 0.10189773                     1_GWF-SFR-(217)-inflow
 Model                             53          1 -1.53023706E-07       *                      1_GWF-(3,118)
 Package                           53                 0.80161273                     1_GWF-SFR-(206)-inflow
 Model                             54          1 -4.06226093E-07       *                     1_GWF-(3,1987)
 Package                           54                 0.13196452                     1_GWF-SFR-(206)-inflow
 Model                             55          1 -1.01613978E-07       *                      1_GWF-(3,532)
 Package                           55                 0.31311606                     1_GWF-SFR-(206)-inflow
 Model                             56          1 -5.25145168E-07       *                     1_GWF-(3,2272)
 Package                           56             6.58140564E-02                     1_GWF-SFR-(206)-inflow
 Model                             57          1 -8.21648598E-08       *                      1_GWF-(3,147)
 Package                           57                 0.35633101                     1_GWF-SFR-(206)-inflow
 Model                             58          1 -1.71621053E-07       *                     1_GWF-(3,1987)
 Package                           58             4.43314577E-02                     1_GWF-SFR-(206)-inflow
 Model                             59          1 -6.82901486E-08       *                     1_GWF-(3,2005)
 Package                           59                 0.14062275                     1_GWF-SFR-(206)-inflow
 Model                             60          1 -2.27017409E-07       *                     1_GWF-(2,2269)
 Package                           60             3.34337699E-02                     1_GWF-SFR-(206)-inflow
 Model                             61          1 -3.42439819E-08       *                      1_GWF-(3,118)
 Package                           61                 0.16554900                     1_GWF-SFR-(206)-inflow
 Model                             62          1 -1.51523381E-07       *                     1_GWF-(2,1989)
 Package                           62             2.23293101E-02                     1_GWF-SFR-(206)-inflow
 Model                             63          1 -3.23721565E-08       *                      1_GWF-(3,118)
 Package                           63                 0.11012324                     1_GWF-SFR-(206)-inflow
 Model                             64          1 -1.41754697E-07       *                     1_GWF-(3,2270)
 Package                           64             1.95761270E-02                     1_GWF-SFR-(206)-inflow
 Model                             65          1 -2.25971917E-08       *                     1_GWF-(3,1411)
 Package                           65                 0.10234373                     1_GWF-SFR-(206)-inflow
 Model                             66          1 -6.73636862E-08       *                     1_GWF-(3,1411)
 Package                           66             1.52707383E-02                     1_GWF-SFR-(206)-inflow
 Model                             67          1 -2.85772046E-08       *                     1_GWF-(3,2005)
 Package                           67             3.68123433E-02                     1_GWF-SFR-(206)-inflow
 Model                             68          1 -4.70395776E-08       *                     1_GWF-(1,2272)
 Package                           68             1.09525638E-02                     1_GWF-SFR-(206)-inflow
 Model                             69          1 -1.20956543E-08       *                      1_GWF-(3,118)
 Package                           69             3.95256398E-02                     1_GWF-SFR-(206)-inflow
 Model                             70          1 -4.99714758E-08       *                     1_GWF-(1,1915)
 Package                           70             4.37044820E-03       *             1_GWF-SFR-(206)-inflow
 ----------------------------------------------------------------------------------------------------------


 70 CALLS TO NUMERICAL SOLUTION IN TIME STEP 2 STRESS PERIOD 2
 82 TOTAL ITERATIONS

 OUTER ITERATION SUMMARY
 ----------------------------------------------------------------------------------------------------------
                                OUTER      INNER                    STEP   MAXIMUM CHANGE MODEL-(CELLID) OR
 OUTER ITERATION STEP       ITERATION  ITERATION  MAXIMUM CHANGE SUCCESS             MODEL-PACKAGE-(NUMBER)
 ----------------------------------------------------------------------------------------------------------
 Model                              1          8 -2.01184401E-02                             1_GWF-(1,1474)
 Model                              2          2  1.75679572E-03       *                      1_GWF-(1,651)
 Package                            2                  10232.276                     1_GWF-SFR-(206)-inflow
 Model                              3          1 -2.63526812E-04       *                       1_GWF-(1,66)
 Package                            3                  4468.5185                     1_GWF-SFR-(206)-inflow
 Model                              4          1  1.74326322E-04       *                     1_GWF-(3,3030)
 Package                            4                  1672.6964                     1_GWF-SFR-(206)-inflow
 Model                              5          1  1.84923080E-04       *                     1_GWF-(3,3030)
 Package                            5                  780.67343                     1_GWF-SFR-(206)-inflow
 Model                              6          1  2.04583469E-04       *                     1_GWF-(3,3029)
 Package                            6                  454.93583                     1_GWF-SFR-(206)-inflow
 Model                              7          1  2.06596763E-04       *                     1_GWF-(3,3071)
 Package                            7                  308.74402                     1_GWF-SFR-(206)-inflow
 Model                              8          1  2.00926844E-04       *                     1_GWF-(3,3070)
 Package                            8                  213.29823                     1_GWF-SFR-(206)-inflow
 Model                              9          1 -1.83500184E-04       *                     1_GWF-(1,2457)
 Package                            9                  152.44080                     1_GWF-SFR-(206)-inflow
 Model                             10          1 -1.92499649E-04       *                     1_GWF-(1,2457)
 Package                           10                  106.75432                     1_GWF-SFR-(206)-inflow
 Model                             11          1 -1.62448252E-04       *                     1_GWF-(1,2538)
 Package                           11                  84.770097                     1_GWF-SFR-(206)-inflow
 Model                             12          1 -1.39799580E-04       *                     1_GWF-(1,2538)
 Package                           12                  68.007532                     1_GWF-SFR-(206)-inflow
 Model                             13          1 -9.14380095E-05       *                     1_GWF-(1,2460)
 Package                           13                  64.766533                     1_GWF-SFR-(206)-inflow
 Model                             14          1 -8.89626155E-05       *                     1_GWF-(1,2460)
 Package                           14                  47.217987                     1_GWF-SFR-(206)-inflow
 Model                             15          1 -3.72087144E-05       *                     1_GWF-(3,1240)
 Package                           15                  54.252539                     1_GWF-SFR-(206)-inflow
 Model                             16          1 -5.61449750E-05       *                     1_GWF-(3,1164)
 Package                           16                  19.671736                     1_GWF-SFR-(206)-inflow
 Model                             17          1 -1.96645291E-05       *                     1_GWF-(3,1240)
 Package                           17                  40.760684                     1_GWF-SFR-(206)-inflow
 Model                             18          1 -6.78567060E-05       *                     1_GWF-(2,2363)
 Package                           18                  9.6503235                     1_GWF-SFR-(206)-inflow
 Model                             19          1 -1.48213979E-05       *                      1_GWF-(2,769)
 Package                           19                  47.221501                     1_GWF-SFR-(206)-inflow
 Model                             20          1 -8.34567175E-05       *                     1_GWF-(1,2365)
 Package                           20                  6.6799303                     1_GWF-SFR-(206)-inflow
 Model                             21          1 -8.15045891E-06       *                      1_GWF-(2,770)
 Package                           21                  56.685910                     1_GWF-SFR-(206)-inflow
 Model                             22          1 -5.09773375E-05       *                     1_GWF-(1,2268)
 Package                           22                  5.9206819                     1_GWF-SFR-(206)-inflow
 Model                             23          1 -5.00887649E-06       *                     1_GWF-(3,1700)
 Package                           23                  38.747793                     1_GWF-SFR-(206)-inflow
 Model                             24          1 -4.05980934E-05       *                     1_GWF-(1,2268)
 Package                           24                  6.0845727                     1_GWF-SFR-(217)-inflow
 Model                             25          1 -2.95751323E-06       *                     1_GWF-(3,1588)
 Package                           25                  29.272240                     1_GWF-SFR-(206)-inflow
 Model                             26          1 -2.79630771E-05       *                     1_GWF-(1,2268)
 Package                           26                  5.1510373                     1_GWF-SFR-(206)-inflow
 Model                             27          1 -2.00484365E-06       *                      1_GWF-(3,188)
 Package                           27                  20.002114                     1_GWF-SFR-(206)-inflow
 Model                             28          1 -1.85177847E-05       *                     1_GWF-(2,2061)
 Package                           28                  3.1926199                     1_GWF-SFR-(206)-inflow
 Model                             29          1 -1.24164998E-06       *                     1_GWF-(1,2667)
 Package                           29                  15.332211                     1_GWF-SFR-(206)-inflow
 Model                             30          1 -1.23977183E-05       *                     1_GWF-(3,1916)
 Package                           30                  1.6173665                     1_GWF-SFR-(206)-inflow
 Model                             31          1 -2.83023340E-06       *                      1_GWF-(2,297)
 Package                           31                  6.8847495                     1_GWF-SFR-(206)-inflow
 Model                             32          1 -2.39694842E-06       *                     1_GWF-(3,1252)
 Package                           32                  2.0312428                     1_GWF-SFR-(206)-inflow
 Model                             33          1 -1.12752295E-06       *                     1_GWF-(3,1854)
 Package                           33                  3.1499983                     1_GWF-SFR-(206)-inflow
 Model                             34          1 -5.94621525E-06       *                     1_GWF-(3,2131)
 Package                           34                 0.78161584                     1_GWF-SFR-(206)-inflow
 Model                             35          1 -5.60669520E-07       *                      1_GWF-(3,188)
 Package                           35                  4.4862292                     1_GWF-SFR-(206)-inflow
 Model                             36          1 -3.68327306E-06       *                     1_GWF-(2,2061)
 Package                           36                 0.58239202                     1_GWF-SFR-(206)-inflow
 Model                             37          1 -4.93145819E-07       *                      1_GWF-(3,118)
 Package                           37                  3.0327210                     1_GWF-SFR-(206)-inflow
 Model                             38          1 -3.48348215E-06       *                     1_GWF-(3,1399)
 Package                           38                 0.34539322                     1_GWF-SFR-(206)-inflow
 Model                             39          1  5.80610077E-07       *                       1_GWF-(3,21)
 Package                           39                  2.2533265                     1_GWF-SFR-(206)-inflow
 Model                             40          1 -1.10245873E-06       *                     1_GWF-(3,1252)
 Package                           40                 0.29638441                     1_GWF-SFR-(217)-inflow
 Model                             41          1 -4.19577731E-07       *                       1_GWF-(3,23)
 Package                           41                 0.87241898                     1_GWF-SFR-(206)-inflow
 Model                             42          1 -1.31338447E-06       *                     1_GWF-(3,2269)
 Package                           42                 0.17051156                     1_GWF-SFR-(206)-inflow
 Model                             43          1 -2.12923908E-07       *                     1_GWF-(3,1410)
 Package                           43                 0.72494477                     1_GWF-SFR-(206)-inflow
 Model                             44          1 -4.22893834E-07       *                     1_GWF-(3,1332)
 Package                           44                 0.22077518                     1_GWF-SFR-(206)-inflow
 Model                             45          1 -1.80102631E-07       *                     1_GWF-(3,2005)
 Package                           45                 0.44529824                     1_GWF-SFR-(206)-inflow
 Model                             46          1 -6.19908576E-07       *                     1_GWF-(2,2131)
 Package                           46             9.65511212E-02                     1_GWF-SFR-(206)-inflow
 Model                             47          1 -1.12135098E-07       *                      1_GWF-(3,118)
 Package                           47                 0.46225736                     1_GWF-SFR-(206)-inflow
 Model                             48          1 -4.78421327E-07       *                     1_GWF-(3,1990)
 Package                           48             7.12078341E-02                     1_GWF-SFR-(206)-inflow
 Model                             49          1 -9.31606507E-08       *                      1_GWF-(3,118)
 Package                           49                 0.38946972                     1_GWF-SFR-(206)-inflow
 Model                             50          1 -4.49767612E-07       *                     1_GWF-(3,2201)
 Package                           50             5.27662225E-02                     1_GWF-SFR-(206)-inflow
 Model                             51          1 -8.39932000E-08       *                      1_GWF-(3,118)
 Package                           51                 0.30992261                     1_GWF-SFR-(206)-inflow
 Model                             52          1 -2.26345151E-07       *                     1_GWF-(3,1675)
 Package                           52             4.59926489E-02                     1_GWF-SFR-(206)-inflow
 Model                             53          1 -5.01071611E-08       *                       1_GWF-(3,23)
 Package                           53                 0.19464148                     1_GWF-SFR-(206)-inflow
 Model                             54          1 -2.49150702E-07       *                     1_GWF-(3,1399)
 Package                           54             2.77089613E-02                     1_GWF-SFR-(206)-inflow
 Model                             55          1 -1.00363593E-07       *                      1_GWF-(3,321)
 Package                           55             8.28397317E-02                     1_GWF-SFR-(206)-inflow
 Model                             56          1 -2.99488647E-08       *                     1_GWF-(3,1676)
 Package                           56             4.06008356E-02                     1_GWF-SFR-(206)-inflow
 Model                             57          1 -3.23746008E-08       *                     1_GWF-(3,2060)
 Package                           57             5.02558501E-02                     1_GWF-SFR-(206)-inflow
 Model                             58          1 -4.53586608E-08       *                     1_GWF-(2,2131)
 Package                           58             2.18825872E-02                     1_GWF-SFR-(206)-inflow
 Model                             59          1 -1.79456663E-08       *                     1_GWF-(3,2005)
 Package                           59             4.43641877E-02                     1_GWF-SFR-(206)-inflow
 Model                             60          1 -4.42250041E-08       *                     1_GWF-(2,2200)
 Package                           60             7.56938320E-03       *             1_GWF-SFR-(206)-inflow
 ----------------------------------------------------------------------------------------------------------


 60 CALLS TO NUMERICAL SOLUTION IN TIME STEP 3 STRESS PERIOD 2
 68 TOTAL ITERATIONS

 OUTER ITERATION SUMMARY
 ----------------------------------------------------------------------------------------------------------
                                OUTER      INNER                    STEP   MAXIMUM CHANGE MODEL-(CELLID) OR
 OUTER ITERATION STEP       ITERATION  ITERATION  MAXIMUM CHANGE SUCCESS             MODEL-PACKAGE-(NUMBER)
 ----------------------------------------------------------------------------------------------------------
 Model                              1          8  1.88339379E-02                              1_GWF-(1,732)
 Model                              2          2  1.33686066E-03       *                     1_GWF-(1,2667)
 Package                            2                 -10766.617                     1_GWF-SFR-(206)-inflow
 Model                              3          1  2.76325394E-04       *                       1_GWF-(1,66)
 Package                            3                 -4598.7560                     1_GWF-SFR-(206)-inflow
 Model                              4          1 -1.61860955E-04       *                     1_GWF-(3,3031)
 Package                            4                 -1702.4520                     1_GWF-SFR-(206)-inflow
 Model                              5          1 -1.72185319E-04       *                     1_GWF-(3,3030)
 Package                            5                 -788.30533                     1_GWF-SFR-(206)-inflow
 Model                              6          1 -1.92193020E-04       *                     1_GWF-(3,3030)
 Package                            6                 -457.99195                     1_GWF-SFR-(206)-inflow
 Model                              7          1 -1.94077180E-04       *                     1_GWF-(3,3071)
 Package                            7                 -309.90137                     1_GWF-SFR-(206)-inflow
 Model                              8          1 -1.88786394E-04       *                     1_GWF-(3,3070)
 Package                            8                 -212.32560                     1_GWF-SFR-(206)-inflow
 Model                              9          1  2.00123810E-04       *                     1_GWF-(1,2457)
 Package                            9                 -150.86286                     1_GWF-SFR-(206)-inflow
 Model                             10          1  2.12944311E-04       *                     1_GWF-(1,2457)
 Package                           10                 -105.11463                     1_GWF-SFR-(206)-inflow
 Model                             11          1  1.68693886E-04       *                     1_GWF-(1,2460)
 Package                           11                 -88.209970                     1_GWF-SFR-(206)-inflow
 Model                             12          1  1.44064468E-04       *                     1_GWF-(1,2460)
 Package                           12                 -72.722436                     1_GWF-SFR-(206)-inflow
 Model                             13          1  8.70646213E-05       *                     1_GWF-(1,2462)
 Package                           13                 -72.775715                     1_GWF-SFR-(206)-inflow
 Model                             14          1  8.89834780E-05       *                     1_GWF-(2,2363)
 Package                           14                 -47.703601                     1_GWF-SFR-(206)-inflow
 Model                             15          1  3.31339734E-05       *                     1_GWF-(3,1777)
 Package                           15                 -59.503748                     1_GWF-SFR-(206)-inflow
 Model                             16          1  7.27204468E-05       *                     1_GWF-(3,1248)
 Package                           16                 -17.412461                     1_GWF-SFR-(206)-inflow
 Model                             17          1  2.11923898E-05       *                      1_GWF-(2,769)
 Package                           17                 -50.539278                     1_GWF-SFR-(206)-inflow
 Model                             18          1  9.31393933E-05       *                     1_GWF-(1,2365)
 Package                           18                 -11.727061                     1_GWF-SFR-(206)-inflow
 Model                             19          1  1.52049335E-05       *                      1_GWF-(2,769)
 Package                           19                 -62.011940                     1_GWF-SFR-(206)-inflow
 Model                             20          1  9.47829586E-05       *                     1_GWF-(1,2365)
 Package                           20                 -9.5080924                     1_GWF-SFR-(206)-inflow
 Model                             21          1  7.64166919E-06       *                     1_GWF-(3,1700)
 Package                           21                 -67.258145                     1_GWF-SFR-(206)-inflow
 Model                             22          1  4.39816486E-05       *                     1_GWF-(1,2268)
 Package                           22                 -7.0897071                     1_GWF-SFR-(217)-inflow
 Model                             23          1  4.92824356E-06       *                     1_GWF-(3,2269)
 Package                           23                 -36.035096                     1_GWF-SFR-(206)-inflow
 Model                             24          1  5.16345306E-05       *                     1_GWF-(2,2200)
 Package                           24                 -5.5205606                     1_GWF-SFR-(217)-inflow
 Model                             25          1  3.23689446E-06       *                     1_GWF-(1,2667)
 Package                           25                 -35.551466                     1_GWF-SFR-(206)-inflow
 Model                             26          1  1.89093825E-05       *                     1_GWF-(1,2268)
 Package                           26                 -6.4504205                     1_GWF-SFR-(206)-inflow
 Model                             27          1  2.20942974E-06       *                     1_GWF-(1,2059)
 Package                           27                 -16.098768                     1_GWF-SFR-(206)-inflow
 Model                             28          1  2.43193793E-05       *                     1_GWF-(2,2131)
 Package                           28                 -2.1091229                     1_GWF-SFR-(206)-inflow
 Model                             29          1  1.56603897E-06       *                      1_GWF-(3,266)
 Package                           29                 -17.468509                     1_GWF-SFR-(206)-inflow
 Model                             30          1  8.04392431E-06       *                     1_GWF-(3,1761)
 Package                           30                 -1.8235402                     1_GWF-SFR-(206)-inflow
 Model                             31          1  1.59391936E-06       *                     1_GWF-(3,1240)
 Package                           31                 -8.6221883                     1_GWF-SFR-(206)-inflow
 Model                             32          1  7.70333639E-06       *                     1_GWF-(3,1320)
 Package                           32                -0.70713724                     1_GWF-SFR-(217)-inflow
 Model                             33          1  3.31493371E-06       *                      1_GWF-(3,319)
 Package                           33                -0.77992753                     1_GWF-SFR-(206)-inflow
 Model                             34          1  9.27255712E-07       *                      1_GWF-(3,326)
 Package                           34                 -3.3127480                     1_GWF-SFR-(206)-inflow
 Model                             35          1  1.49418204E-06       *                     1_GWF-(3,1990)
 Package                           35                 -1.5748422                     1_GWF-SFR-(206)-inflow
 Model                             36          1  1.84712698E-06       *                     1_GWF-(3,2131)
 Package                           36                 -1.0639895                     1_GWF-SFR-(206)-inflow
 Model                             37          1  7.85614986E-07       *                     1_GWF-(1,2365)
 Package                           37                 -1.8388655                     1_GWF-SFR-(206)-inflow
 Model                             38          1  1.56558775E-06       *                     1_GWF-(3,2131)
 Package                           38                -0.34280495                     1_GWF-SFR-(206)-inflow
 Model                             39          1  5.17558732E-07       *                      1_GWF-(3,188)
 Package                           39                 -1.6254749                     1_GWF-SFR-(206)-inflow
 Model                             40          1  2.20602226E-06       *                     1_GWF-(2,2200)
 Package                           40                -0.10525588                     1_GWF-SFR-(206)-inflow
 Model                             41          1  4.77823363E-07       *                      1_GWF-(3,188)
 Package                           41                 -1.8106214                     1_GWF-SFR-(206)-inflow
 Model                             42          1  2.81912071E-06       *                     1_GWF-(2,2200)
 Package                           42                -0.19146500                     1_GWF-SFR-(206)-inflow
 Model                             43          1  2.95898701E-07       *                      1_GWF-(3,118)
 Package                           43                 -2.0465087                     1_GWF-SFR-(206)-inflow
 Model                             44          1  7.27922554E-07       *                     1_GWF-(2,2132)
 Package                           44                -0.28556255                     1_GWF-SFR-(206)-inflow
 Model                             45          1  1.63894185E-07       *                      1_GWF-(3,118)
 Package                           45                -0.58480769                     1_GWF-SFR-(206)-inflow
 Model                             46          1  1.00162345E-06       *                     1_GWF-(3,2131)
 Package                           46                -0.14682750                     1_GWF-SFR-(206)-inflow
 Model                             47          1  1.47880229E-07       *                      1_GWF-(3,118)
 Package                           47                -0.81784854                     1_GWF-SFR-(206)-inflow
 Model                             48          1  9.40689972E-07       *                     1_GWF-(2,2200)
 Package                           48            -5.67450146E-02                     1_GWF-SFR-(206)-inflow
 Model                             49          1  9.22310051E-08       *                      1_GWF-(3,118)
 Package                           49                -0.69631417                     1_GWF-SFR-(206)-inflow
 Model                             50          1  1.24882376E-07       *                     1_GWF-(3,1932)
 Package                           50            -6.94447382E-02                     1_GWF-SFR-(217)-inflow
 Model                             51          1  8.11646714E-08       *                     1_GWF-(3,1169)
 Package                           51            -9.89326145E-02                     1_GWF-SFR-(206)-inflow
 Model                             52          1  1.20096018E-07       *                     1_GWF-(3,2200)
 Package                           52            -5.86846693E-02                     1_GWF-SFR-(206)-inflow
 Model                             53          1  5.02093940E-08       *                      1_GWF-(2,204)
 Package                           53            -9.58816285E-02                     1_GWF-SFR-(206)-inflow
 Model                             54          1  1.47477834E-07       *                     1_GWF-(3,2060)
 Package                           54            -2.81829929E-02                     1_GWF-SFR-(206)-inflow
 Model                             55          1  4.74412900E-08       *                      1_GWF-(3,118)
 Package                           55                -0.11135943                     1_GWF-SFR-(206)-inflow
 Model                             56          1  2.00121207E-07       *                     1_GWF-(1,2268)
 Package                           56            -2.11092740E-02                     1_GWF-SFR-(206)-inflow
 Model                             57          1  3.17115791E-08       *                      1_GWF-(3,188)
 Package                           57                -0.14724498                     1_GWF-SFR-(206)-inflow
 Model                             58          1  6.33054924E-08       *                     1_GWF-(1,1916)
 Package                           58            -1.69708504E-02                     1_GWF-SFR-(206)-inflow
 Model                             59          1  1.88044282E-08       *                      1_GWF-(3,118)
 Package                           59            -4.93131815E-02                     1_GWF-SFR-(206)-inflow
 Model                             60          1  8.32120577E-08       *                     1_GWF-(3,2061)
 Package                           60            -1.17364292E-02                     1_GWF-SFR-(206)-inflow
 Model                             61          1  1.61609250E-08       *                      1_GWF-(3,118)
 Package                           61            -6.40898666E-02                     1_GWF-SFR-(206)-inflow
 Model                             62          1  4.61485570E-08       *                     1_GWF-(3,1331)
 Package                           62            -8.09921228E-03       *             1_GWF-SFR-(217)-inflow
 ----------------------------------------------------------------------------------------------------------


 62 CALLS TO NUMERICAL SOLUTION IN TIME STEP 4 STRESS PERIOD 2
 70 TOTAL ITERATIONS

 OUTER ITERATION SUMMARY
 ----------------------------------------------------------------------------------------------------------
                                OUTER      INNER                    STEP   MAXIMUM CHANGE MODEL-(CELLID) OR
 OUTER ITERATION STEP       ITERATION  ITERATION  MAXIMUM CHANGE SUCCESS             MODEL-PACKAGE-(NUMBER)
 ----------------------------------------------------------------------------------------------------------
 Model                              1          7  1.46061404E-02                              1_GWF-(1,732)
 Model                              2          1  9.65537834E-04       *                     1_GWF-(1,2667)
 Package                            2                 -7719.4097                     1_GWF-SFR-(206)-inflow
 Model                              3          1 -2.50016576E-04       *                     1_GWF-(3,2986)
 Package                            3                 -2922.7858                     1_GWF-SFR-(206)-inflow
 Model                              4          1 -2.34144666E-04       *                     1_GWF-(3,3032)
 Package                            4                 -1330.6923                     1_GWF-SFR-(206)-inflow
 Model                              5          1 -2.48600571E-04       *                     1_GWF-(3,3031)
 Package                            5                 -683.60189                     1_GWF-SFR-(206)-inflow
 Model                              6          1 -2.69210515E-04       *                     1_GWF-(3,3031)
 Package                            6                 -408.74069                     1_GWF-SFR-(206)-inflow
 Model                              7          1 -2.74957836E-04       *                     1_GWF-(3,3030)
 Package                            7                 -264.57904                     1_GWF-SFR-(206)-inflow
 Model                              8          1 -2.68842244E-04       *                     1_GWF-(3,3071)
 Package                            8                 -169.06119                     1_GWF-SFR-(206)-inflow
 Model                              9          1  2.39626078E-04       *                     1_GWF-(1,2457)
 Package                            9                 -104.64012                     1_GWF-SFR-(206)-inflow
 Model                             10          1  2.50173209E-04       *                     1_GWF-(1,2457)
 Package                           10                 -62.813132                     1_GWF-SFR-(206)-inflow
 Model                             11          1  1.33620044E-04       *                     1_GWF-(1,2460)
 Package                           11                 -60.402699                     1_GWF-SFR-(206)-inflow
 Model                             12          1  9.76305663E-05       *                     1_GWF-(1,2460)
 Package                           12                 -49.687533                     1_GWF-SFR-(206)-inflow
 Model                             13          1  5.15349025E-05       *                     1_GWF-(1,2462)
 Package                           13                 -52.876532                     1_GWF-SFR-(206)-inflow
 Model                             14          1  5.58789671E-05       *                     1_GWF-(2,2363)
 Package                           14                 -23.200825                     1_GWF-SFR-(206)-inflow
 Model                             15          1  2.13302496E-05       *                     1_GWF-(3,1854)
 Package                           15                 -39.194196                     1_GWF-SFR-(206)-inflow
 Model                             16          1  6.32415603E-05       *                     1_GWF-(2,2363)
 Package                           16                 -12.730389                     1_GWF-SFR-(206)-inflow
 Model                             17          1  1.43015778E-05       *                      1_GWF-(2,769)
 Package                           17                 -34.803274                     1_GWF-SFR-(206)-inflow
 Model                             18          1  6.62373930E-05       *                     1_GWF-(1,2365)
 Package                           18                 -13.890867                     1_GWF-SFR-(206)-inflow
 Model                             19          1  9.49178965E-06       *                      1_GWF-(2,769)
 Package                           19                 -35.707498                     1_GWF-SFR-(206)-inflow
 Model                             20          1  5.03596604E-05       *                     1_GWF-(1,2365)
 Package                           20                 -11.664493                     1_GWF-SFR-(206)-inflow
 Model                             21          1  5.97406296E-06       *                     1_GWF-(1,2268)
 Package                           21                 -35.462922                     1_GWF-SFR-(206)-inflow
 Model                             22          1  4.37476006E-05       *                     1_GWF-(1,2268)
 Package                           22                 -5.0824500                     1_GWF-SFR-(206)-inflow
 Model                             23          1  3.98564342E-06       *                     1_GWF-(3,1699)
 Package                           23                 -33.757013                     1_GWF-SFR-(206)-inflow
 Model                             24          1  3.74347420E-05       *                     1_GWF-(2,2200)
 Package                           24                 -2.6502190                     1_GWF-SFR-(217)-inflow
 Model                             25          1  2.44205287E-06       *                      1_GWF-(3,188)
 Package                           25                 -27.514723                     1_GWF-SFR-(206)-inflow
 Model                             26          1  2.02962000E-05       *                     1_GWF-(1,2268)
 Package                           26                 -3.4112327                     1_GWF-SFR-(217)-inflow
[...]
 Package                           52             8.94269772E-02                     1_GWF-SFR-(206)-inflow
 Model                             53          1 -9.37861557E-08       *                      1_GWF-(3,118)
 Package                           53                 0.42730341                     1_GWF-SFR-(206)-inflow
 Model                             54          1 -4.06721028E-07       *                     1_GWF-(1,2268)
 Package                           54             8.07112072E-02                     1_GWF-SFR-(206)-inflow
 Model                             55          1 -8.31142870E-08       *                      1_GWF-(3,118)
 Package                           55                 0.34324414                     1_GWF-SFR-(206)-inflow
 Model                             56          1 -4.32516288E-07       *                     1_GWF-(3,2268)
 Package                           56             3.60791838E-02                     1_GWF-SFR-(206)-inflow
 Model                             57          1 -7.77683056E-08       *                      1_GWF-(3,118)
 Package                           57                 0.28842402                     1_GWF-SFR-(206)-inflow
 Model                             58          1 -2.71879799E-07       *                     1_GWF-(3,1675)
 Package                           58             3.57472848E-02                     1_GWF-SFR-(206)-inflow
 Model                             59          1 -3.78772711E-08       *                      1_GWF-(3,118)
 Package                           59                 0.22910733                     1_GWF-SFR-(206)-inflow
 Model                             60          1 -1.80251760E-07       *                     1_GWF-(3,1581)
 Package                           60             2.97023068E-02                     1_GWF-SFR-(206)-inflow
 Model                             61          1 -9.56798658E-08       *                      1_GWF-(3,321)
 Package                           61             3.84546468E-02                     1_GWF-SFR-(217)-inflow
 Model                             62          1 -3.30227863E-08       *                     1_GWF-(3,1677)
 Package                           62             4.45303479E-02                     1_GWF-SFR-(206)-inflow
 Model                             63          1 -2.79685537E-08       *                     1_GWF-(2,2131)
 Package                           63             5.42451916E-02                     1_GWF-SFR-(206)-inflow
 Model                             64          1 -6.83409382E-08       *                     1_GWF-(2,2200)
 Package                           64             1.70870686E-02                     1_GWF-SFR-(206)-inflow
 Model                             65          1 -1.59668616E-08       *                      1_GWF-(3,188)
 Package                           65             6.18637243E-02                     1_GWF-SFR-(206)-inflow
 Model                             66          1 -7.58760166E-08       *                     1_GWF-(2,2200)
 Package                           66             4.19981177E-03       *             1_GWF-SFR-(206)-inflow
 ----------------------------------------------------------------------------------------------------------


 66 CALLS TO NUMERICAL SOLUTION IN TIME STEP 47 STRESS PERIOD 2
 75 TOTAL ITERATIONS

 OUTER ITERATION SUMMARY
 ----------------------------------------------------------------------------------------------------------
                                OUTER      INNER                    STEP   MAXIMUM CHANGE MODEL-(CELLID) OR
 OUTER ITERATION STEP       ITERATION  ITERATION  MAXIMUM CHANGE SUCCESS             MODEL-PACKAGE-(NUMBER)
 ----------------------------------------------------------------------------------------------------------
 Model                              1          9  2.45560858E-02                              1_GWF-(1,732)
 Model                              2          2  2.04820407E-03       *                     1_GWF-(1,2752)
 Package                            2                 -13966.693                     1_GWF-SFR-(206)-inflow
 Model                              3          1 -5.17609452E-04       *                     1_GWF-(1,2752)
 Package                            3                 -6024.0858                     1_GWF-SFR-(206)-inflow
 Model                              4          1  1.90294941E-04       *                       1_GWF-(1,63)
 Package                            4                 -2234.0742                     1_GWF-SFR-(206)-inflow
 Model                              5          1  1.56713193E-04       *                       1_GWF-(2,99)
 Package                            5                 -1038.0061                     1_GWF-SFR-(206)-inflow
 Model                              6          1 -1.49049032E-04       *                     1_GWF-(3,3028)
 Package                            6                 -602.97655                     1_GWF-SFR-(206)-inflow
 Model                              7          1 -1.49272787E-04       *                     1_GWF-(3,3069)
 Package                            7                 -413.60212                     1_GWF-SFR-(206)-inflow
 Model                              8          1 -1.42366010E-04       *                     1_GWF-(3,3068)
 Package                            8                 -294.99743                     1_GWF-SFR-(206)-inflow
 Model                              9          1  1.45069480E-04       *                     1_GWF-(1,2752)
 Package                            9                 -216.95831                     1_GWF-SFR-(206)-inflow
 Model                             10          1  1.54750074E-04       *                     1_GWF-(1,2752)
 Package                           10                 -157.84592                     1_GWF-SFR-(206)-inflow
 Model                             11          1  1.50911884E-04       *                     1_GWF-(1,2752)
 Package                           11                 -118.83895                     1_GWF-SFR-(206)-inflow
 Model                             12          1  1.41789690E-04       *                     1_GWF-(1,2752)
 Package                           12                 -91.111677                     1_GWF-SFR-(206)-inflow
 Model                             13          1  1.25640437E-04       *                     1_GWF-(1,2752)
 Package                           13                 -76.260226                     1_GWF-SFR-(206)-inflow
 Model                             14          1  1.12741968E-04       *                     1_GWF-(1,2752)
 Package                           14                 -63.990672                     1_GWF-SFR-(206)-inflow
 Model                             15          1  9.60626408E-05       *                     1_GWF-(1,2752)
 Package                           15                 -58.720123                     1_GWF-SFR-(206)-inflow
 Model                             16          1  8.60024995E-05       *                     1_GWF-(1,2752)
 Package                           16                 -50.361650                     1_GWF-SFR-(206)-inflow
 Model                             17          1  7.16513983E-05       *                     1_GWF-(1,2752)
 Package                           17                 -48.857687                     1_GWF-SFR-(206)-inflow
 Model                             18          1  6.55827187E-05       *                     1_GWF-(1,2752)
 Package                           18                 -40.145388                     1_GWF-SFR-(206)-inflow
 Model                             19          1  5.26994319E-05       *                     1_GWF-(1,2752)
 Package                           19                 -42.136109                     1_GWF-SFR-(206)-inflow
 Model                             20          1  5.13977466E-05       *                     1_GWF-(3,1164)
 Package                           20                 -30.085550                     1_GWF-SFR-(206)-inflow
 Model                             21          1  3.57897004E-05       *                     1_GWF-(1,2752)
 Package                           21                 -38.222439                     1_GWF-SFR-(206)-inflow
 Model                             22          1  3.85192993E-05       *                     1_GWF-(3,1082)
 Package                           22                 -17.396533                     1_GWF-SFR-(206)-inflow
 Model                             23          1  2.21464372E-05       *                     1_GWF-(1,2752)
 Package                           23                 -33.760064                     1_GWF-SFR-(206)-inflow
 Model                             24          1  3.32049465E-05       *                     1_GWF-(3,1410)
 Package                           24                 -6.5741520                     1_GWF-SFR-(206)-inflow
 Model                             25          1  1.70108207E-05       *                     1_GWF-(1,2752)
 Package                           25                 -29.630682                     1_GWF-SFR-(206)-inflow
 Model                             26          1  3.34712457E-05       *                     1_GWF-(3,1410)
 Package                           26                 -4.0052272                     1_GWF-SFR-(206)-inflow
 Model                             27          1  1.44007894E-05       *                     1_GWF-(1,2752)
 Package                           27                 -28.166114                     1_GWF-SFR-(206)-inflow
 Model                             28          1  3.48324034E-05       *                     1_GWF-(3,1410)
 Package                           28                 -3.2770006                     1_GWF-SFR-(206)-inflow
 Model                             29          1  1.27727731E-05       *                     1_GWF-(1,2752)
 Package                           29                 -27.488750                     1_GWF-SFR-(206)-inflow
 Model                             30          1  3.49786413E-05       *                     1_GWF-(3,1930)
 Package                           30                 -3.6784536                     1_GWF-SFR-(217)-inflow
 Model                             31          1  1.11726256E-05       *                     1_GWF-(1,2752)
 Package                           31                 -25.990109                     1_GWF-SFR-(206)-inflow
 Model                             32          1  2.85871924E-05       *                     1_GWF-(3,1930)
 Package                           32                 -4.3256566                     1_GWF-SFR-(217)-inflow
 Model                             33          1  8.78818517E-06       *                     1_GWF-(1,2752)
 Package                           33                 -20.658095                     1_GWF-SFR-(206)-inflow
 Model                             34          1  2.10053945E-05       *                     1_GWF-(3,1930)
 Package                           34                 -4.0476373                     1_GWF-SFR-(206)-inflow
 Model                             35          1  6.54764062E-06       *                     1_GWF-(1,2752)
 Package                           35                 -15.489451                     1_GWF-SFR-(206)-inflow
 Model                             36          1  1.62782591E-05       *                     1_GWF-(3,1930)
 Package                           36                 -3.0541359                     1_GWF-SFR-(206)-inflow
 Model                             37          1  4.88951042E-06       *                     1_GWF-(1,2752)
 Package                           37                 -12.426860                     1_GWF-SFR-(206)-inflow
 Model                             38          1  1.13755027E-05       *                     1_GWF-(3,1701)
 Package                           38                 -2.0142609                     1_GWF-SFR-(206)-inflow
 Model                             39          1  3.40276910E-06       *                     1_GWF-(1,2752)
 Package                           39                 -8.9270439                     1_GWF-SFR-(206)-inflow
 Model                             40          1  7.64982295E-06       *                     1_GWF-(3,1700)
 Package                           40                 -1.2856156                     1_GWF-SFR-(206)-inflow
 Model                             41          1  2.32867595E-06       *                     1_GWF-(1,2752)
 Package                           41                 -6.0103992                     1_GWF-SFR-(206)-inflow
 Model                             42          1  5.06507320E-06       *                     1_GWF-(3,1701)
 Package                           42                -0.87021233                     1_GWF-SFR-(206)-inflow
 Model                             43          1  1.57551486E-06       *                     1_GWF-(1,2752)
 Package                           43                 -4.0398220                     1_GWF-SFR-(206)-inflow
 Model                             44          1  3.64617100E-06       *                     1_GWF-(3,1782)
 Package                           44                -0.59144323                     1_GWF-SFR-(206)-inflow
 Model                             45          1  1.10535376E-06       *                     1_GWF-(1,2752)
 Package                           45                 -2.8437356                     1_GWF-SFR-(206)-inflow
 Model                             46          1  1.58624451E-06       *                     1_GWF-(3,1411)
 Package                           46                -0.40938519                     1_GWF-SFR-(206)-inflow
 Model                             47          1  5.18990277E-07       *                     1_GWF-(1,2752)
 Package                           47                 -1.2882472                     1_GWF-SFR-(206)-inflow
 Model                             48          1  2.07830706E-06       *                     1_GWF-(3,1856)
 Package                           48                -0.29138654                     1_GWF-SFR-(206)-inflow
 Model                             49          1  4.94879401E-07       *                     1_GWF-(1,2752)
 Package                           49                 -1.5595547                     1_GWF-SFR-(206)-inflow
 Model                             50          1  8.87647531E-07       *                     1_GWF-(3,1333)
 Package                           50                -0.20080175                     1_GWF-SFR-(206)-inflow
 Model                             51          1  2.73898678E-07       *                     1_GWF-(1,2752)
 Package                           51                -0.67437453                     1_GWF-SFR-(206)-inflow
 Model                             52          1  1.24701799E-06       *                     1_GWF-(3,1854)
 Package                           52                -0.12958978                     1_GWF-SFR-(206)-inflow
 Model                             53          1  3.19115799E-07       *                     1_GWF-(1,2752)
 Package                           53                -0.78162550                     1_GWF-SFR-(206)-inflow
 Model                             54          1  2.84477750E-07       *                     1_GWF-(3,1332)
 Package                           54                -0.13833989                     1_GWF-SFR-(217)-inflow
 Model                             55          1  1.52780160E-07       *                     1_GWF-(3,1854)
 Package                           55                -0.21015642                     1_GWF-SFR-(217)-inflow
 Model                             56          1  3.49498862E-07       *                     1_GWF-(3,2364)
 Package                           56                -0.10170917                     1_GWF-SFR-(206)-inflow
 Model                             57          1  1.14527467E-07       *                     1_GWF-(1,2752)
 Package                           57                -0.29346252                     1_GWF-SFR-(206)-inflow
 Model                             58          1  2.59367340E-07       *                     1_GWF-(3,1781)
 Package                           58            -5.17633293E-02                     1_GWF-SFR-(206)-inflow
 Model                             59          1  8.80097559E-08       *                     1_GWF-(1,2752)
 Package                           59                -0.22517371                     1_GWF-SFR-(206)-inflow
 Model                             60          1  1.89019886E-07       *                     1_GWF-(1,2369)
 Package                           60            -3.60616975E-02                     1_GWF-SFR-(217)-inflow
 Model                             61          1  6.18148590E-08       *                     1_GWF-(1,2752)
 Package                           61                -0.16347871                     1_GWF-SFR-(206)-inflow
 Model                             62          1  1.59787589E-07       *                     1_GWF-(1,2369)
 Package                           62            -2.68672988E-02                     1_GWF-SFR-(217)-inflow
 Model                             63          1  4.99794908E-08       *                     1_GWF-(1,2752)
 Package                           63                -0.13228717                     1_GWF-SFR-(206)-inflow
 Model                             64          1  1.35916650E-07       *                     1_GWF-(1,2369)
 Package                           64            -2.32494615E-02                     1_GWF-SFR-(217)-inflow
 Model                             65          1  4.12439078E-08       *                     1_GWF-(1,2752)
 Package                           65                -0.10767497                     1_GWF-SFR-(206)-inflow
 Model                             66          1  1.19350716E-07       *                     1_GWF-(2,2268)
 Package                           66            -2.01822333E-02                     1_GWF-SFR-(206)-inflow
 Model                             67          1  3.46995819E-08       *                     1_GWF-(1,2752)
 Package                           67            -9.28849668E-02                     1_GWF-SFR-(206)-inflow
 Model                             68          1  8.86416558E-08       *                     1_GWF-(2,2268)
 Package                           68            -1.61431853E-02                     1_GWF-SFR-(206)-inflow
 Model                             69          1  2.58931436E-08       *                     1_GWF-(1,2752)
 Package                           69            -6.88704705E-02                     1_GWF-SFR-(206)-inflow
 Model                             70          1  7.48545403E-08       *                     1_GWF-(3,1930)
 Package                           70            -1.14294719E-02                     1_GWF-SFR-(206)-inflow
 Model                             71          1  2.02759338E-08       *                     1_GWF-(1,2752)
 Package                           71            -5.56577794E-02                     1_GWF-SFR-(206)-inflow
 Model                             72          1  4.05365483E-08       *                     1_GWF-(3,1332)
 Package                           72            -7.70408633E-03       *             1_GWF-SFR-(206)-inflow
 ----------------------------------------------------------------------------------------------------------


 72 CALLS TO NUMERICAL SOLUTION IN TIME STEP 48 STRESS PERIOD 2
 81 TOTAL ITERATIONS

 MEMORY MANAGER TOTAL STORAGE BY DATA TYPE, IN MEGABYTES
 -------------------------------
                    ALLOCATED   
 DATA TYPE           MEMORY     
 -------------------------------
 Character        0.13808900    
 Logical          4.40000000E-05
 Integer          2.0605680     
 Real             4.8738400     
 -------------------------------
 Total            7.0725410     
 -------------------------------


 
 Run end date and time (yyyy/mm/dd hh:mm:ss): 2021/11/06 11:50:33
 Elapsed run time: 14.072 Seconds
 Normal termination of simulation.
