                                   MODFLOW 6
                U.S. GEOLOGICAL SURVEY MODULAR HYDROLOGIC MODEL
                            VERSION 6.2.1 02/18/2021

   MODFLOW 6 compiled Feb 18 2021 21:14:51 with IFORT compiler (ver. 19.10.3)

This software has been approved for release by the U.S. Geological 
Survey (USGS). Although the software has been subjected to rigorous 
review, the USGS reserves the right to update the software as needed 
pursuant to further analysis and review. No warranty, expressed or 
implied, is made by the USGS or the U.S. Government as to the 
functionality of the software and related material nor shall the 
fact of release constitute any such warranty. Furthermore, the 
software is released on condition that neither the USGS nor the U.S. 
Government shall be held liable for any damages resulting from its 
authorized or unauthorized use. Also refer to the USGS Water 
Resources Software User Rights Notice for complete use, copyright, 
and distribution information.


System command used to initiate simulation:
..\bins\win\mf6

MODFLOW was compiled using uniform precision.

Real Variables
  KIND: 8
  TINY (smallest non-zero value):    2.225074-308
  HUGE (largest value):    1.797693+308
  PRECISION: 15
  BIT SIZE: 64

Integer Variables
  KIND: 4
  HUGE (largest value): 2147483647
  BIT SIZE: 32

Long Integer Variables
  KIND: 8
  HUGE (largest value): 9223372036854775807
  BIT SIZE: 64

Logical Variables
  KIND: 4
  BIT SIZE: 32
 

 OPENED mfsim.nam
 FILE TYPE:NAM   UNIT 1001   STATUS:OLD                 
 FORMAT:FORMATTED              ACCESS:SEQUENTIAL          
 ACTION:READ                

 # File generated by Flopy version 3.3.5 on 11/03/2021 at 09:22:53.

 READING SIMULATION OPTIONS
 END OF SIMULATION OPTIONS

 READING SIMULATION TIMING

 OPENED experimental.tdis
 FILE TYPE:TDIS   UNIT 1002   STATUS:OLD                 
 FORMAT:FORMATTED              ACCESS:SEQUENTIAL          
 ACTION:READ                


 TDIS -- TEMPORAL DISCRETIZATION PACKAGE,
 VERSION 1 : 11/13/2014 - INPUT READ FROM UNIT 1002
 # File generated by Flopy version 3.3.5 on 11/03/2021 at 09:22:53.
 PROCESSING TDIS OPTIONS
    SIMULATION TIME UNIT IS DAYS
 END OF TDIS OPTIONS
 PROCESSING TDIS DIMENSIONS
    2 STRESS PERIOD(S) IN SIMULATION
 END OF TDIS DIMENSIONS
 PROCESSING TDIS PERIODDATA


 STRESS PERIOD     LENGTH       TIME STEPS     MULTIPLIER FOR DELT
 ----------------------------------------------------------------------------
        1         1.000000          1                    1.000
        2         1460.000         48                    1.000
 END OF TDIS PERIODDATA
 END OF SIMULATION TIMING

 READING SIMULATION MODELS
    GWF6 model EXPERIMENTAL will be created as model 1
 END OF SIMULATION MODELS

 READING SIMULATION EXCHANGES
 END OF SIMULATION EXCHANGES

 READING SOLUTIONGROUP

 Creating solution: SLN_1           

 OPENED experimental.ims
 FILE TYPE:IMS   UNIT 1014   STATUS:OLD                 
 FORMAT:FORMATTED              ACCESS:SEQUENTIAL          
 ACTION:READ                

 END OF SIMULATION SOLUTIONGROUP

 IMS -- ITERATIVE MODEL SOLUTION PACKAGE, VERSION 6, 4/28/2017
         INPUT READ FROM UNIT 1014
 # File generated by Flopy version 3.3.5 on 11/03/2021 at 09:22:53.

 PROCESSING IMS OPTIONS
 SIMPLE OPTION:
 DEFAULT SOLVER INPUT VALUES FOR FAST SOLUTIONS
 END OF IMS OPTIONS

 PROCESSING IMS NONLINEAR
 END OF IMS NONLINEAR DATA
 ***UNDER-RELAXATION WILL NOT BE USED***
 
 ***IMS LINEAR SOLVER WILL BE USED***

 IMSLINEAR -- UNSTRUCTURED LINEAR SOLUTION PACKAGE, VERSION 8, 04/28/2017

 PROCESSING LINEAR DATA
 END OF LINEAR DATA
 
 OUTER ITERATION CONVERGENCE CRITERION    (DVCLOSE) =    0.100000E-01
 MAXIMUM NUMBER OF OUTER ITERATIONS        (MXITER) = 750
 SOLVER PRINTOUT INDEX                     (IPRIMS) = 1
 NONLINEAR ITERATION METHOD            (NONLINMETH) = 0
 LINEAR SOLUTION METHOD                   (LINMETH) = 1

       SOLUTION BY THE BICONJUGATE-GRADIENT STABILIZED METHOD
 ------------------------------------------------------------------
 MAXIMUM OF 750 CALLS OF SOLUTION ROUTINE
 MAXIMUM OF 50 INTERNAL ITERATIONS PER CALL TO SOLUTION ROUTINE
 LINEAR ACCELERATION METHOD            = BCGS      
 MATRIX PRECONDITIONING TYPE           = INCOMPLETE LU       
 MATRIX SCALING APPROACH               = NO SCALING          
 MATRIX REORDERING APPROACH            = ORIGINAL ORDERING        
 NUMBER OF ORTHOGONALIZATIONS          = 0
 HEAD CHANGE CRITERION FOR CLOSURE     =    0.10000E-02
 RESIDUAL CHANGE CRITERION FOR CLOSURE =    0.10000E+00
 RESIDUAL CONVERGENCE OPTION           = 0
 RESIDUAL CONVERGENCE NORM             = INFINITY NORM   
 RELAXATION FACTOR                     =    0.00000E+00



1
                            STRESS PERIOD NO.    1, LENGTH =   1.000000    
                            -----------------------------------------------

                              NUMBER OF TIME STEPS =     1

                               MULTIPLIER FOR DELT =     1.000

                            INITIAL TIME STEP SIZE =   1.000000    

 OUTER ITERATION SUMMARY
 ----------------------------------------------------------------------------------------------------------
                                OUTER      INNER                    STEP   MAXIMUM CHANGE MODEL-(CELLID) OR
 OUTER ITERATION STEP       ITERATION  ITERATION  MAXIMUM CHANGE SUCCESS             MODEL-PACKAGE-(NUMBER)
 ----------------------------------------------------------------------------------------------------------
 Model                              1         43      -4.0840960                             1_GWF-(1,1157)
 Model                              2         37      -1.3241011                             1_GWF-(1,2739)
 Model                              3         31     -0.96211115                             1_GWF-(1,2595)
 Model                              4         34     -0.85499816                             1_GWF-(1,2181)
 Model                              5         33     -0.26651608                             1_GWF-(1,1745)
 Model                              6         29     -0.17687982                              1_GWF-(2,332)
 Model                              7         33     -0.23720716                             1_GWF-(1,1431)
 Model                              8         34     -0.24184013                             1_GWF-(1,1621)
 Model                              9         35     -0.18909872                             1_GWF-(1,1637)
 Model                             10          2 -1.22789265E-02                              1_GWF-(1,409)
 Model                             11          2 -3.44901008E-03       *                      1_GWF-(1,409)
 Package                           11                  146.91979                     1_GWF-SFR-(217)-inflow
 Model                             12          2 -9.37179522E-04       *                      1_GWF-(1,409)
 Package                           12                  42.729883                     1_GWF-SFR-(257)-inflow
 Model                             13          1 -2.67294454E-04       *                      1_GWF-(1,409)
 Package                           13                  19.696934                     1_GWF-SFR-(257)-inflow
 Model                             14          1 -2.91245294E-04       *                      1_GWF-(3,134)
 Package                           14                  5.4145773                     1_GWF-SFR-(257)-inflow
 Model                             15          1 -2.61102996E-04       *                      1_GWF-(3,133)
 Package                           15                  4.0697994                     1_GWF-SFR-(257)-inflow
 Model                             16          1 -2.54735508E-04       *                      1_GWF-(3,135)
 Package                           16                  3.0336899                     1_GWF-SFR-(217)-inflow
 Model                             17          1 -1.38469050E-04       *                      1_GWF-(3,520)
 Package                           17                  3.2213164                     1_GWF-SFR-(217)-inflow
 Model                             18          1 -2.19711735E-04       *                      1_GWF-(3,763)
 Package                           18                  1.9830127                     1_GWF-SFR-(217)-inflow
 Model                             19          1 -9.42470858E-05       *                     1_GWF-(3,1092)
 Package                           19                  2.8488278                     1_GWF-SFR-(217)-inflow
 Model                             20          1 -2.94168788E-04       *                     1_GWF-(3,1333)
 Package                           20                  1.0775013                     1_GWF-SFR-(217)-inflow
 Model                             21          1 -4.46870023E-05       *                     1_GWF-(3,1783)
 Package                           21                  2.8648282                     1_GWF-SFR-(217)-inflow
 Model                             22          1 -3.98492899E-04       *                     1_GWF-(3,1591)
 Package                           22                 0.39110761                     1_GWF-SFR-(206)-inflow
 Model                             23          1  3.74144396E-05       *                       1_GWF-(1,61)
 Package                           23                  2.6499114                     1_GWF-SFR-(217)-inflow
 Model                             24          1 -5.24553022E-04       *                     1_GWF-(3,2413)
 Package                           24                 0.30190647                     1_GWF-SFR-(206)-inflow
 Model                             25          1  8.18185387E-05       *                     1_GWF-(1,3020)
 Package                           25                  3.0345363                     1_GWF-SFR-(217)-inflow
 Model                             26          1 -3.45087103E-05       *                     1_GWF-(1,3020)
 Package                           26                 0.45448331                     1_GWF-SFR-(257)-inflow
 Model                             27          1 -5.22292167E-05       *                     1_GWF-(3,3124)
 Package                           27                 0.23420970                     1_GWF-SFR-(217)-inflow
 Model                             28          1 -2.86777660E-05       *                     1_GWF-(3,3121)
 Package                           28                 0.28137957                     1_GWF-SFR-(206)-inflow
 Model                             29          1 -2.08655464E-05       *                     1_GWF-(1,2512)
 Package                           29                 0.27345112                     1_GWF-SFR-(217)-inflow
 Model                             30          1 -3.92259282E-05       *                     1_GWF-(3,3121)
 Package                           30             9.85824175E-02                     1_GWF-SFR-(206)-inflow
 Model                             31          1 -1.57241941E-05       *                     1_GWF-(1,2512)
 Package                           31                 0.30340689                     1_GWF-SFR-(217)-inflow
 Model                             32          1 -5.49835394E-05       *                     1_GWF-(2,3123)
 Package                           32             6.76480598E-02                     1_GWF-SFR-(206)-inflow
 Model                             33          1 -1.36459657E-05       *                     1_GWF-(1,2512)
 Package                           33                 0.35994800                     1_GWF-SFR-(217)-inflow
 Model                             34          1 -9.88661122E-05       *                     1_GWF-(3,3111)
 Package                           34             6.46431471E-02                     1_GWF-SFR-(206)-inflow
 Model                             35          1 -1.38889345E-05       *                     1_GWF-(1,2512)
 Package                           35                 0.54635613                     1_GWF-SFR-(217)-inflow
 Model                             36          1 -2.06189592E-04       *                     1_GWF-(2,3078)
 Package                           36             8.16276259E-02                     1_GWF-SFR-(206)-inflow
 Model                             37          1  3.41723439E-05       *                     1_GWF-(1,3020)
 Package                           37                  1.0385936                     1_GWF-SFR-(206)-inflow
 Model                             38          1 -9.59009668E-06       *                     1_GWF-(1,2263)
 Package                           38                 0.15695274                     1_GWF-SFR-(217)-inflow
 Model                             39          1 -2.29960678E-05       *                     1_GWF-(3,2854)
 Package                           39             6.50821602E-02                     1_GWF-SFR-(217)-inflow
 Model                             40          1 -1.07344012E-05       *                     1_GWF-(3,2783)
 Package                           40             5.91009418E-02                     1_GWF-SFR-(206)-inflow
 Model                             41          1 -1.07873885E-05       *                     1_GWF-(3,2781)
 Package                           41             8.11621858E-02                     1_GWF-SFR-(217)-inflow
 Model                             42          1 -1.22654354E-05       *                     1_GWF-(3,2783)
 Package                           42             1.55642569E-02                     1_GWF-SFR-(206)-inflow
 Model                             43          1 -8.98693699E-06       *                     1_GWF-(3,2558)
 Package                           43             7.29076232E-02                     1_GWF-SFR-(217)-inflow
 Model                             44          1 -1.44028647E-05       *                     1_GWF-(3,2783)
 Package                           44             1.26668941E-02                     1_GWF-SFR-(206)-inflow
 Model                             45          1 -7.40226650E-06       *                     1_GWF-(3,2558)
 Package                           45             6.92578025E-02                     1_GWF-SFR-(217)-inflow
 Model                             46          1 -1.93489216E-05       *                     1_GWF-(3,2783)
 Package                           46             1.15519352E-02                     1_GWF-SFR-(206)-inflow
 Model                             47          1 -5.99414736E-06       *                     1_GWF-(1,2890)
 Package                           47             7.38536588E-02                     1_GWF-SFR-(217)-inflow
 Model                             48          1 -4.16332328E-05       *                     1_GWF-(3,2783)
 Package                           48             1.14071508E-02                     1_GWF-SFR-(206)-inflow
 Model                             49          1 -9.36689636E-06       *                      1_GWF-(1,409)
 Package                           49                 0.12180049                     1_GWF-SFR-(217)-inflow
 Model                             50          1 -3.19335351E-04       *                     1_GWF-(3,2704)
 Package                           50             1.59613409E-02                     1_GWF-SFR-(206)-inflow
 Model                             51          1 -3.77885456E-05       *                      1_GWF-(1,409)
 Package                           51                 0.76271444                     1_GWF-SFR-(206)-inflow
 Model                             52          1 -1.25783360E-05       *                      1_GWF-(1,409)
 Package                           52                 0.16668678                     1_GWF-SFR-(217)-inflow
 Model                             53          1 -8.31057119E-06       *                     1_GWF-(3,2565)
 Package                           53             3.51069695E-02                     1_GWF-SFR-(257)-inflow
 Model                             54          1 -1.03128324E-05       *                     1_GWF-(3,2562)
 Package                           54             1.63284087E-02                     1_GWF-SFR-(257)-inflow
 Model                             55          1 -5.45836585E-06       *                     1_GWF-(2,2704)
 Package                           55             1.40611992E-02                     1_GWF-SFR-(206)-inflow
 Model                             56          1 -4.62681680E-06       *                     1_GWF-(3,2557)
 Package                           56             2.50895631E-02                     1_GWF-SFR-(257)-inflow
 Model                             57          1 -5.55008583E-06       *                     1_GWF-(2,2704)
 Package                           57            -1.39000107E-02                     1_GWF-SFR-(257)-inflow
 Model                             58          1 -4.18599868E-06       *                     1_GWF-(3,2557)
 Package                           58             2.53880058E-02                     1_GWF-SFR-(217)-inflow
 Model                             59          1 -5.83564565E-06       *                     1_GWF-(2,2704)
 Package                           59            -8.74015512E-03       *             1_GWF-SFR-(217)-inflow
 ----------------------------------------------------------------------------------------------------------


 59 CALLS TO NUMERICAL SOLUTION IN TIME STEP 1 STRESS PERIOD 1
 362 TOTAL ITERATIONS
1
                            STRESS PERIOD NO.    2, LENGTH =   1460.000    
                            -----------------------------------------------

                              NUMBER OF TIME STEPS =    48

                               MULTIPLIER FOR DELT =     1.000

                            INITIAL TIME STEP SIZE =   30.41667    

 OUTER ITERATION SUMMARY
 ----------------------------------------------------------------------------------------------------------
                                OUTER      INNER                    STEP   MAXIMUM CHANGE MODEL-(CELLID) OR
 OUTER ITERATION STEP       ITERATION  ITERATION  MAXIMUM CHANGE SUCCESS             MODEL-PACKAGE-(NUMBER)
 ----------------------------------------------------------------------------------------------------------
 Model                              1          1 -3.68732668E-06       *                     1_GWF-(3,2557)
 Package                            1                 -141012.67                     1_GWF-SFR-(217)-inflow
 Model                              2          1 -6.17815624E-06       *                     1_GWF-(2,2704)
 Package                            2                -0.24077254                     1_GWF-SFR-(217)-inflow
 Model                              3          1 -3.16923672E-06       *                     1_GWF-(3,2557)
 Package                            3                 0.72609240                     1_GWF-SFR-(217)-inflow
 Model                              4          1 -6.83247978E-06       *                     1_GWF-(2,2704)
 Package                            4                -0.20354909                     1_GWF-SFR-(217)-inflow
 Model                              5          1 -2.62431976E-06       *                     1_GWF-(3,2562)
 Package                            5                 0.70676462                     1_GWF-SFR-(217)-inflow
 Model                              6          1 -8.31003518E-06       *                     1_GWF-(2,2704)
 Package                            6                -0.16129602                     1_GWF-SFR-(217)-inflow
 Model                              7          1 -2.05027496E-06       *                     1_GWF-(3,2562)
 Package                            7                 0.72811643                     1_GWF-SFR-(217)-inflow
 Model                              8          1 -1.26953021E-05       *                     1_GWF-(2,2704)
 Package                            8                -0.11405214                     1_GWF-SFR-(217)-inflow
 Model                              9          1  2.43933303E-06       *                      1_GWF-(3,118)
 Package                            9                 0.89251056                     1_GWF-SFR-(217)-inflow
 Model                             10          1 -3.22135054E-05       *                     1_GWF-(2,2704)
 Package                           10            -4.77974574E-02                     1_GWF-SFR-(217)-inflow
 Model                             11          1 -3.76501620E-06       *                      1_GWF-(1,409)
 Package                           11                  1.8154669                     1_GWF-SFR-(206)-inflow
 Model                             12          1 -1.55398425E-05       *                     1_GWF-(2,2704)
 Package                           12                 0.22821725                     1_GWF-SFR-(217)-inflow
 Model                             13          1 -2.92366050E-06       *                      1_GWF-(1,409)
 Package                           13                 0.93342085                     1_GWF-SFR-(206)-inflow
 Model                             14          1 -8.50721193E-06       *                     1_GWF-(2,2704)
 Package                           14                 0.25979571                     1_GWF-SFR-(217)-inflow
 Model                             15          1 -1.03978243E-06       *                       1_GWF-(3,86)
 Package                           15                 0.65910194                     1_GWF-SFR-(217)-inflow
 Model                             16          1 -1.11124243E-05       *                     1_GWF-(2,2704)
 Package                           16             7.11510190E-02                     1_GWF-SFR-(206)-inflow
 Model                             17          1 -1.31703257E-06       *                      1_GWF-(1,409)
 Package                           17                 0.78053779                     1_GWF-SFR-(206)-inflow
 Model                             18          1 -9.89770925E-06       *                     1_GWF-(2,2704)
 Package                           18             5.51864197E-02                     1_GWF-SFR-(206)-inflow
 Model                             19          1 -1.45116334E-06       *                      1_GWF-(1,409)
 Package                           19                  1.0432848                     1_GWF-SFR-(217)-inflow
 Model                             20          1 -2.10564764E-06       *                     1_GWF-(2,2704)
 Package                           20            -8.54335954E-02                     1_GWF-SFR-(217)-inflow
 Model                             21          1 -8.26643401E-07       *                     1_GWF-(3,2783)
 Package                           21                -0.37113797                     1_GWF-SFR-(257)-inflow
 Model                             22          1 -1.11041345E-06       *                     1_GWF-(2,2783)
 Package                           22                 0.23583859                     1_GWF-SFR-(217)-inflow
 Model                             23          1 -2.10816518E-06       *                     1_GWF-(2,2704)
 Package                           23                 0.10790223                     1_GWF-SFR-(257)-inflow
 Model                             24          1 -9.26979567E-07       *                     1_GWF-(2,2783)
 Package                           24                 0.15808133                     1_GWF-SFR-(206)-inflow
 Model                             25          1 -9.94218652E-07       *                     1_GWF-(3,2704)
 Package                           25                 0.12503215                     1_GWF-SFR-(257)-inflow
 Model                             26          1 -9.84387952E-07       *                     1_GWF-(2,2783)
 Package                           26             6.43689953E-02                     1_GWF-SFR-(206)-inflow
 Model                             27          1 -7.73513420E-07       *                     1_GWF-(3,2635)
 Package                           27                 0.11916074                     1_GWF-SFR-(257)-inflow
 Model                             28          1 -1.11898731E-06       *                     1_GWF-(2,2783)
 Package                           28            -5.07592056E-02                     1_GWF-SFR-(257)-inflow
 Model                             29          1 -6.36117079E-07       *                     1_GWF-(3,2562)
 Package                           29                 0.12434990                     1_GWF-SFR-(217)-inflow
 Model                             30          1 -1.23543197E-06       *                     1_GWF-(2,2783)
 Package                           30            -4.42827885E-02                     1_GWF-SFR-(257)-inflow
 Model                             31          1 -5.37251026E-07       *                     1_GWF-(3,2562)
 Package                           31                 0.13272689                     1_GWF-SFR-(217)-inflow
 Model                             32          1 -1.36162078E-06       *                     1_GWF-(2,2783)
 Package                           32            -3.54000901E-02                     1_GWF-SFR-(257)-inflow
 Model                             33          1 -4.54873089E-07       *                     1_GWF-(3,2562)
 Package                           33                 0.13912511                     1_GWF-SFR-(217)-inflow
 Model                             34          1 -1.54172955E-06       *                     1_GWF-(2,2784)
 Package                           34             3.11099562E-02                     1_GWF-SFR-(206)-inflow
 Model                             35          1 -3.97857605E-07       *                     1_GWF-(1,2890)
 Package                           35                 0.14762477                     1_GWF-SFR-(217)-inflow
 Model                             36          1 -1.88151211E-06       *                     1_GWF-(2,2784)
 Package                           36             2.95637793E-02                     1_GWF-SFR-(206)-inflow
 Model                             37          1 -3.87264350E-07       *                      1_GWF-(3,152)
 Package                           37                 0.16548892                     1_GWF-SFR-(217)-inflow
 Model                             38          1 -2.72273277E-06       *                     1_GWF-(2,2784)
 Package                           38             2.90036466E-02                     1_GWF-SFR-(206)-inflow
 Model                             39          1 -4.58791334E-07       *                      1_GWF-(3,152)
 Package                           39                 0.21443198                     1_GWF-SFR-(217)-inflow
 Model                             40          1 -5.88177690E-06       *                     1_GWF-(2,2784)
 Package                           40             3.12007547E-02                     1_GWF-SFR-(206)-inflow
 Model                             41          1 -7.29007866E-07       *                      1_GWF-(1,409)
 Package                           41                 0.40876736                     1_GWF-SFR-(206)-inflow
 Model                             42          1 -1.97595355E-06       *                     1_GWF-(2,2704)
 Package                           42             4.65293413E-02                     1_GWF-SFR-(206)-inflow
 Model                             43          1 -4.10776522E-07       *                      1_GWF-(1,409)
 Package                           43                 0.14433080                     1_GWF-SFR-(206)-inflow
 Model                             44          1 -1.48091277E-06       *                     1_GWF-(2,2704)
 Package                           44             2.96062846E-02                     1_GWF-SFR-(217)-inflow
 Model                             45          1 -1.97821265E-07       *                       1_GWF-(3,86)
 Package                           45                 0.11288018                     1_GWF-SFR-(206)-inflow
 Model                             46          1 -2.28552113E-06       *                     1_GWF-(2,2704)
 Package                           46             2.05424707E-02                     1_GWF-SFR-(217)-inflow
 Model                             47          1 -3.43174861E-07       *                      1_GWF-(1,409)
 Package                           47                 0.16453452                     1_GWF-SFR-(206)-inflow
 Model                             48          1 -1.92924276E-06       *                     1_GWF-(2,2784)
 Package                           48             3.44157195E-02                     1_GWF-SFR-(217)-inflow
 Model                             49          1 -2.53874163E-07       *                      1_GWF-(1,409)
 Package                           49                 0.16448787                     1_GWF-SFR-(217)-inflow
 Model                             50          1 -6.34816473E-07       *                     1_GWF-(2,2704)
 Package                           50            -7.30834752E-03       *             1_GWF-SFR-(245)-inflow
 ----------------------------------------------------------------------------------------------------------


 50 CALLS TO NUMERICAL SOLUTION IN TIME STEP 1 STRESS PERIOD 2
 50 TOTAL ITERATIONS

 OUTER ITERATION SUMMARY
 ----------------------------------------------------------------------------------------------------------
                                OUTER      INNER                    STEP   MAXIMUM CHANGE MODEL-(CELLID) OR
 OUTER ITERATION STEP       ITERATION  ITERATION  MAXIMUM CHANGE SUCCESS             MODEL-PACKAGE-(NUMBER)
 ----------------------------------------------------------------------------------------------------------
 Model                              1          1 -4.68042086E-06       *                      1_GWF-(3,426)
 Package                            1                 -141002.48                     1_GWF-SFR-(217)-inflow
 Model                              2          1 -5.81863006E-06       *                      1_GWF-(3,584)
 Package                            2             6.39504150E-02                     1_GWF-SFR-(217)-inflow
 Model                              3          1 -3.03577650E-06       *                     1_GWF-(3,2627)
 Package                            3                 0.14746118                     1_GWF-SFR-(217)-inflow
 Model                              4          1 -3.23841749E-06       *                      1_GWF-(3,665)
 Package                            4             8.15597349E-02                     1_GWF-SFR-(206)-inflow
 Model                              5          1 -3.55277575E-06       *                     1_GWF-(3,2627)
 Package                            5             7.34779798E-02                     1_GWF-SFR-(217)-inflow
 Model                              6          1 -2.43581667E-06       *                      1_GWF-(3,665)
 Package                            6             7.75152197E-02                     1_GWF-SFR-(206)-inflow
 Model                              7          1 -4.30201263E-06       *                     1_GWF-(3,2627)
 Package                            7             6.33926247E-02                     1_GWF-SFR-(217)-inflow
 Model                              8          1 -1.63867801E-06       *                     1_GWF-(3,2689)
 Package                            8                 0.10899515                     1_GWF-SFR-(206)-inflow
 Model                              9          1 -1.48018138E-05       *                     1_GWF-(3,2627)
 Package                            9             5.57666460E-02                     1_GWF-SFR-(217)-inflow
 Model                             10          1 -3.51698404E-06       *                      1_GWF-(1,409)
 Package                           10                 0.60579703                     1_GWF-SFR-(206)-inflow
 Model                             11          1 -3.02102060E-06       *                     1_GWF-(3,3017)
 Package                           11                 0.14250797                     1_GWF-SFR-(217)-inflow
 Model                             12          1 -1.96120584E-06       *                     1_GWF-(3,2627)
 Package                           12                 0.17604653                     1_GWF-SFR-(217)-inflow
 Model                             13          1 -2.91778045E-06       *                     1_GWF-(3,3017)
 Package                           13             4.80015448E-02                     1_GWF-SFR-(206)-inflow
 Model                             14          1 -1.95349037E-06       *                     1_GWF-(3,2627)
 Package                           14                 0.14015147                     1_GWF-SFR-(217)-inflow
 Model                             15          1 -3.33242599E-06       *                     1_GWF-(3,3017)
 Package                           15             3.05751821E-02                     1_GWF-SFR-(206)-inflow
 Model                             16          1 -1.64493505E-06       *                     1_GWF-(3,2627)
 Package                           16                 0.15608275                     1_GWF-SFR-(217)-inflow
 Model                             17          1 -6.54476176E-06       *                     1_GWF-(3,3017)
 Package                           17             3.07084194E-02                     1_GWF-SFR-(206)-inflow
 Model                             18          1 -1.22665045E-06       *                     1_GWF-(3,2627)
 Package                           18                 0.36063626                     1_GWF-SFR-(206)-inflow
 Model                             19          1 -6.55846293E-06       *                     1_GWF-(3,2627)
 Package                           19             5.08215136E-02                     1_GWF-SFR-(206)-inflow
 Model                             20          1 -1.61127446E-06       *                      1_GWF-(1,409)
 Package                           20                 0.36435363                     1_GWF-SFR-(206)-inflow
 Model                             21          1 -2.57646212E-06       *                     1_GWF-(3,3017)
 Package                           21             5.94280357E-02                     1_GWF-SFR-(217)-inflow
 Model                             22          1 -7.56322265E-07       *                     1_GWF-(3,2627)
 Package                           22                 0.13779219                     1_GWF-SFR-(206)-inflow
 Model                             23          1 -3.59507362E-06       *                     1_GWF-(3,3017)
 Package                           23             3.58641309E-02                     1_GWF-SFR-(206)-inflow
 Model                             24          1 -8.43911494E-07       *                     1_GWF-(3,2627)
 Package                           24                 0.23524510                     1_GWF-SFR-(217)-inflow
 Model                             25          1 -4.39490734E-06       *                     1_GWF-(3,2628)
 Package                           25             1.68168717E-02                     1_GWF-SFR-(206)-inflow
 Model                             26          1 -5.80244460E-07       *                     1_GWF-(3,3017)
 Package                           26                 0.21819248                     1_GWF-SFR-(206)-inflow
 Model                             27          1 -1.03842100E-06       *                     1_GWF-(3,3017)
 Package                           27             5.74803803E-02                     1_GWF-SFR-(217)-inflow
 Model                             28          1 -3.70749234E-07       *                      1_GWF-(3,347)
 Package                           28                 0.19055642                     1_GWF-SFR-(217)-inflow
 Model                             29          1 -8.43632250E-07       *                     1_GWF-(3,3017)
 Package                           29            -3.22148492E-02                     1_GWF-SFR-(206)-inflow
 Model                             30          1 -3.74634539E-07       *                     1_GWF-(3,2627)
 Package                           30            -4.48674673E-02                     1_GWF-SFR-(217)-inflow
 Model                             31          1 -7.62640582E-07       *                     1_GWF-(3,3017)
 Package                           31             5.81298390E-02                     1_GWF-SFR-(217)-inflow
 Model                             32          1 -3.51262997E-07       *                     1_GWF-(3,2627)
 Package                           32             5.48805800E-02                     1_GWF-SFR-(217)-inflow
 Model                             33          1 -1.05093554E-06       *                     1_GWF-(3,3017)
 Package                           33             1.44304021E-02                     1_GWF-SFR-(206)-inflow
 Model                             34          1 -3.30919278E-07       *                     1_GWF-(3,2627)
 Package                           34             3.94419057E-02                     1_GWF-SFR-(217)-inflow
 Model                             35          1 -2.06291443E-06       *                     1_GWF-(3,2854)
 Package                           35             2.00119970E-02                     1_GWF-SFR-(206)-inflow
 Model                             36          1 -1.93792971E-07       *                      1_GWF-(1,409)
 Package                           36                 0.17966640                     1_GWF-SFR-(206)-inflow
 Model                             37          1 -5.11761044E-07       *                      1_GWF-(2,504)
 Package                           37             1.21143431E-02                     1_GWF-SFR-(257)-inflow
 Model                             38          1 -2.73578763E-07       *                      1_GWF-(3,417)
 Package                           38            -2.85383707E-02                     1_GWF-SFR-(217)-inflow
 Model                             39          1 -1.73671481E-07       *                     1_GWF-(3,2696)
 Package                           39             4.05608956E-02                     1_GWF-SFR-(206)-inflow
 Model                             40          1 -1.66341948E-07       *                     1_GWF-(3,2689)
 Package                           40             1.96312826E-02                     1_GWF-SFR-(217)-inflow
 Model                             41          1 -1.82397059E-07       *                     1_GWF-(3,2627)
 Package                           41            -3.04255415E-03       *             1_GWF-SFR-(217)-inflow
 ----------------------------------------------------------------------------------------------------------


 41 CALLS TO NUMERICAL SOLUTION IN TIME STEP 2 STRESS PERIOD 2
 41 TOTAL ITERATIONS

 OUTER ITERATION SUMMARY
 ----------------------------------------------------------------------------------------------------------
                                OUTER      INNER                    STEP   MAXIMUM CHANGE MODEL-(CELLID) OR
 OUTER ITERATION STEP       ITERATION  ITERATION  MAXIMUM CHANGE SUCCESS             MODEL-PACKAGE-(NUMBER)
 ----------------------------------------------------------------------------------------------------------
 Model                              1          1 -2.40429029E-06       *                      1_GWF-(3,426)
 Package                            1                 -140998.66                     1_GWF-SFR-(217)-inflow
 Model                              2          1 -2.55539200E-06       *                      1_GWF-(2,428)
 Package                            2             1.06598947E-02                     1_GWF-SFR-(206)-inflow
 Model                              3          1 -1.56523410E-06       *                      1_GWF-(3,906)
 Package                            3             5.90751548E-02                     1_GWF-SFR-(206)-inflow
 Model                              4          1 -1.47994572E-06       *                      1_GWF-(3,665)
 Package                            4             2.98738834E-02                     1_GWF-SFR-(206)-inflow
 Model                              5          1 -1.66473285E-06       *                     1_GWF-(3,2627)
 Package                            5             3.52272934E-02                     1_GWF-SFR-(206)-inflow
 Model                              6          1 -1.10822006E-06       *                      1_GWF-(3,665)
 Package                            6             3.06938572E-02                     1_GWF-SFR-(206)-inflow
 Model                              7          1 -2.19325165E-06       *                     1_GWF-(3,2627)
 Package                            7             2.89857724E-02                     1_GWF-SFR-(206)-inflow
 Model                              8          1 -7.21724234E-07       *                      1_GWF-(3,665)
 Package                            8             5.52632212E-02                     1_GWF-SFR-(206)-inflow
 Model                              9          1 -1.77773253E-05       *                      1_GWF-(2,830)
 Package                            9             2.83286777E-02                     1_GWF-SFR-(217)-inflow
 Model                             10          1 -4.35238948E-06       *                      1_GWF-(1,409)
 Package                           10                 0.72559501                     1_GWF-SFR-(206)-inflow
 Model                             11          1 -1.39519364E-06       *                      1_GWF-(1,409)
 Package                           11                 0.15995359                     1_GWF-SFR-(217)-inflow
 Model                             12          1 -5.22362626E-07       *                      1_GWF-(1,409)
 Package                           12             4.06113875E-02                     1_GWF-SFR-(217)-inflow
 Model                             13          1 -4.26835669E-07       *                     1_GWF-(3,2562)
 Package                           13             4.24085390E-02                     1_GWF-SFR-(217)-inflow
 Model                             14          1 -4.48333424E-07       *                     1_GWF-(3,2689)
 Package                           14             4.95389635E-02                     1_GWF-SFR-(206)-inflow
 Model                             15          1 -2.48287591E-07       *                     1_GWF-(3,3096)
 Package                           15             5.56539021E-02                     1_GWF-SFR-(217)-inflow
 Model                             16          1 -4.05538117E-07       *                     1_GWF-(3,2689)
 Package                           16             1.31315646E-02                     1_GWF-SFR-(206)-inflow
 Model                             17          1 -2.19986759E-07       *                     1_GWF-(3,3096)
 Package                           17             4.48424939E-02                     1_GWF-SFR-(217)-inflow
 Model                             18          1 -4.33573405E-07       *                     1_GWF-(3,2689)
 Package                           18             1.02131657E-02                     1_GWF-SFR-(206)-inflow
 Model                             19          1 -1.85514978E-07       *                     1_GWF-(3,3096)
 Package                           19             4.55043664E-02                     1_GWF-SFR-(217)-inflow
 Model                             20          1 -5.49230833E-07       *                     1_GWF-(3,2689)
 Package                           20             7.90250756E-03       *             1_GWF-SFR-(206)-inflow
 ----------------------------------------------------------------------------------------------------------


 20 CALLS TO NUMERICAL SOLUTION IN TIME STEP 3 STRESS PERIOD 2
 20 TOTAL ITERATIONS

 OUTER ITERATION SUMMARY
 ----------------------------------------------------------------------------------------------------------
                                OUTER      INNER                    STEP   MAXIMUM CHANGE MODEL-(CELLID) OR
 OUTER ITERATION STEP       ITERATION  ITERATION  MAXIMUM CHANGE SUCCESS             MODEL-PACKAGE-(NUMBER)
 ----------------------------------------------------------------------------------------------------------
 Model                              1          1 -1.01919389E-06       *                      1_GWF-(3,347)
 Package                            1                 -140997.26                     1_GWF-SFR-(217)-inflow
 Model                              2          1 -9.27908047E-07       *                      1_GWF-(3,584)
 Package                            2             1.17364396E-02                     1_GWF-SFR-(206)-inflow
 Model                              3          1 -8.65100390E-07       *                     1_GWF-(3,2627)
 Package                            3             3.53316843E-02                     1_GWF-SFR-(217)-inflow
 Model                              4          1 -4.63245527E-07       *                      1_GWF-(3,665)
 Package                            4             1.95250268E-02                     1_GWF-SFR-(206)-inflow
 Model                              5          1 -2.10725457E-06       *                      1_GWF-(3,990)
 Package                            5             2.30674430E-02                     1_GWF-SFR-(217)-inflow
 Model                              6          1 -6.28229998E-07       *                      1_GWF-(1,409)
 Package                            6             7.51282860E-02                     1_GWF-SFR-(206)-inflow
 Model                              7          1 -1.97657266E-06       *                     1_GWF-(3,2969)
 Package                            7             3.34412820E-02                     1_GWF-SFR-(217)-inflow
 Model                              8          1 -4.52204404E-07       *                     1_GWF-(3,2627)
 Package                            8                 0.11079568                     1_GWF-SFR-(217)-inflow
 Model                              9          1 -2.36582838E-06       *                     1_GWF-(3,3017)
 Package                            9             1.04300446E-02                     1_GWF-SFR-(206)-inflow
 Model                             10          1 -3.67454817E-07       *                     1_GWF-(3,3096)
 Package                           10                 0.14112168                     1_GWF-SFR-(217)-inflow
 Model                             11          1 -1.43510269E-06       *                     1_GWF-(2,2393)
 Package                           11             8.60243258E-03       *             1_GWF-SFR-(206)-inflow
 ----------------------------------------------------------------------------------------------------------


 11 CALLS TO NUMERICAL SOLUTION IN TIME STEP 4 STRESS PERIOD 2
 11 TOTAL ITERATIONS

 OUTER ITERATION SUMMARY
 ----------------------------------------------------------------------------------------------------------
                                OUTER      INNER                    STEP   MAXIMUM CHANGE MODEL-(CELLID) OR
 OUTER ITERATION STEP       ITERATION  ITERATION  MAXIMUM CHANGE SUCCESS             MODEL-PACKAGE-(NUMBER)
 ----------------------------------------------------------------------------------------------------------
 Model                              1          1 -7.35134535E-07       *                     1_GWF-(3,2299)
 Package                            1                 -140996.76                     1_GWF-SFR-(217)-inflow
 Model                              2          1 -1.04287014E-06       *                     1_GWF-(3,1687)
 Package                            2             1.64588640E-02                     1_GWF-SFR-(257)-inflow
 Model                              3          1 -3.42456190E-07       *                     1_GWF-(3,2619)
 Package                            3             2.51918444E-02                     1_GWF-SFR-(206)-inflow
 Model                              4          1 -4.45222042E-07       *                     1_GWF-(3,3096)
 Package                            4             2.65998063E-02                     1_GWF-SFR-(217)-inflow
 Model                              5          1 -4.31927731E-07       *                     1_GWF-(3,3017)
 Package                            5             1.73654043E-02                     1_GWF-SFR-(206)-inflow
 Model                              6          1 -3.27694465E-07       *                     1_GWF-(3,3096)
 Package                            6             1.85429900E-02                     1_GWF-SFR-(217)-inflow
 Model                              7          1 -7.30056598E-07       *                     1_GWF-(3,3017)
 Package                            7             1.24240947E-02                     1_GWF-SFR-(206)-inflow
 Model                              8          1 -2.49300342E-07       *                     1_GWF-(3,3096)
 Package                            8             3.13475112E-02                     1_GWF-SFR-(217)-inflow
 Model                              9          1 -6.05994771E-06       *                     1_GWF-(3,2482)
 Package                            9             1.17404598E-02                     1_GWF-SFR-(206)-inflow
 Model                             10          1 -1.05039277E-06       *                      1_GWF-(1,409)
 Package                           10                 0.33556049                     1_GWF-SFR-(206)-inflow
 Model                             11          1 -3.28847023E-07       *                      1_GWF-(1,409)
 Package                           11             4.85494803E-02                     1_GWF-SFR-(217)-inflow
 Model                             12          1 -1.21320312E-07       *                      1_GWF-(1,409)
 Package                           12             1.00570915E-02                     1_GWF-SFR-(217)-inflow
 Model                             13          1 -1.14560180E-07       *                     1_GWF-(3,3017)
 Package                           13             8.39342508E-03       *             1_GWF-SFR-(206)-inflow
 ----------------------------------------------------------------------------------------------------------


 13 CALLS TO NUMERICAL SOLUTION IN TIME STEP 5 STRESS PERIOD 2
 13 TOTAL ITERATIONS

 OUTER ITERATION SUMMARY
 ----------------------------------------------------------------------------------------------------------
                                OUTER      INNER                    STEP   MAXIMUM CHANGE MODEL-(CELLID) OR
 OUTER ITERATION STEP       ITERATION  ITERATION  MAXIMUM CHANGE SUCCESS             MODEL-PACKAGE-(NUMBER)
 ----------------------------------------------------------------------------------------------------------
 Model                              1          1 -3.98252780E-07       *                      1_GWF-(3,426)
 Package                            1                 -140996.23                     1_GWF-SFR-(217)-inflow
 Model                              2          1 -2.70738951E-07       *                      1_GWF-(2,584)
 Package                            2             7.44628296E-03       *             1_GWF-SFR-(206)-inflow
 ----------------------------------------------------------------------------------------------------------


 2 CALLS TO NUMERICAL SOLUTION IN TIME STEP 6 STRESS PERIOD 2
 2 TOTAL ITERATIONS

 OUTER ITERATION SUMMARY
 ----------------------------------------------------------------------------------------------------------
                                OUTER      INNER                    STEP   MAXIMUM CHANGE MODEL-(CELLID) OR
 OUTER ITERATION STEP       ITERATION  ITERATION  MAXIMUM CHANGE SUCCESS             MODEL-PACKAGE-(NUMBER)
 ----------------------------------------------------------------------------------------------------------
 Model                              1          1 -3.45125898E-07       *                     1_GWF-(3,2627)
 Package                            1                 -140996.21                     1_GWF-SFR-(217)-inflow
 Model                              2          1 -2.02911281E-07       *                     1_GWF-(3,1573)
 Package                            2             1.07886132E-02                     1_GWF-SFR-(206)-inflow
 Model                              3          1 -3.78249865E-07       *                     1_GWF-(3,2627)
 Package                            3             5.17992391E-03       *             1_GWF-SFR-(206)-inflow
 ----------------------------------------------------------------------------------------------------------


 3 CALLS TO NUMERICAL SOLUTION IN TIME STEP 7 STRESS PERIOD 2
 3 TOTAL ITERATIONS

 OUTER ITERATION SUMMARY
 ----------------------------------------------------------------------------------------------------------
                                OUTER      INNER                    STEP   MAXIMUM CHANGE MODEL-(CELLID) OR
 OUTER ITERATION STEP       ITERATION  ITERATION  MAXIMUM CHANGE SUCCESS             MODEL-PACKAGE-(NUMBER)
 ----------------------------------------------------------------------------------------------------------
 Model                              1          1 -1.62049929E-07       *                      1_GWF-(3,665)
 Package                            1                 -140996.19                     1_GWF-SFR-(217)-inflow
 Model                              2          1 -7.43217925E-07       *                     1_GWF-(3,2627)
 Package                            2             4.65840378E-03       *             1_GWF-SFR-(217)-inflow
 ----------------------------------------------------------------------------------------------------------


 2 CALLS TO NUMERICAL SOLUTION IN TIME STEP 8 STRESS PERIOD 2
 2 TOTAL ITERATIONS

 OUTER ITERATION SUMMARY
 ----------------------------------------------------------------------------------------------------------
                                OUTER      INNER                    STEP   MAXIMUM CHANGE MODEL-(CELLID) OR
 OUTER ITERATION STEP       ITERATION  ITERATION  MAXIMUM CHANGE SUCCESS             MODEL-PACKAGE-(NUMBER)
 ----------------------------------------------------------------------------------------------------------
 Model                              1          1 -1.43891498E-07       *                      1_GWF-(1,409)
 Package                            1                 -140996.15                     1_GWF-SFR-(217)-inflow
 Model                              2          1 -1.32247553E-06       *                     1_GWF-(3,3017)
 Package                            2             6.90568927E-03       *             1_GWF-SFR-(217)-inflow
 ----------------------------------------------------------------------------------------------------------


 2 CALLS TO NUMERICAL SOLUTION IN TIME STEP 9 STRESS PERIOD 2
 2 TOTAL ITERATIONS

 OUTER ITERATION SUMMARY
 ----------------------------------------------------------------------------------------------------------
                                OUTER      INNER                    STEP   MAXIMUM CHANGE MODEL-(CELLID) OR
 OUTER ITERATION STEP       ITERATION  ITERATION  MAXIMUM CHANGE SUCCESS             MODEL-PACKAGE-(NUMBER)
 ----------------------------------------------------------------------------------------------------------
 Model                              1          1 -2.81138568E-07       *                      1_GWF-(1,409)
 Package                            1                 -140996.08                     1_GWF-SFR-(217)-inflow
 Model                              2          1 -3.19873550E-07       *                      1_GWF-(3,347)
 Package                            2             1.06102323E-02                     1_GWF-SFR-(206)-inflow
 Model                              3          1 -1.39480107E-07       *                      1_GWF-(2,665)
 Package                            3             1.81300872E-02                     1_GWF-SFR-(206)-inflow
 Model                              4          1 -3.38952276E-07       *                     1_GWF-(3,2627)
 Package                            4             3.23659365E-03       *             1_GWF-SFR-(206)-inflow
 ----------------------------------------------------------------------------------------------------------


 4 CALLS TO NUMERICAL SOLUTION IN TIME STEP 10 STRESS PERIOD 2
 4 TOTAL ITERATIONS

 OUTER ITERATION SUMMARY
 ----------------------------------------------------------------------------------------------------------
                                OUTER      INNER                    STEP   MAXIMUM CHANGE MODEL-(CELLID) OR
 OUTER ITERATION STEP       ITERATION  ITERATION  MAXIMUM CHANGE SUCCESS             MODEL-PACKAGE-(NUMBER)
 ----------------------------------------------------------------------------------------------------------
 Model                              1          1 -1.32205997E-07       *                      1_GWF-(2,584)
 Package                            1                 -140996.03                     1_GWF-SFR-(217)-inflow
 Model                              2          1 -4.36596252E-07       *                     1_GWF-(3,2627)
 Package                            2            -6.00379506E-04       *             1_GWF-SFR-(266)-inflow
 ----------------------------------------------------------------------------------------------------------


 2 CALLS TO NUMERICAL SOLUTION IN TIME STEP 11 STRESS PERIOD 2
 2 TOTAL ITERATIONS

 OUTER ITERATION SUMMARY
 ----------------------------------------------------------------------------------------------------------
                                OUTER      INNER                    STEP   MAXIMUM CHANGE MODEL-(CELLID) OR
 OUTER ITERATION STEP       ITERATION  ITERATION  MAXIMUM CHANGE SUCCESS             MODEL-PACKAGE-(NUMBER)
 ----------------------------------------------------------------------------------------------------------
 Model                              1          1 -1.23498751E-07       *                     1_GWF-(3,3017)
 Package                            1                 -140996.00                     1_GWF-SFR-(217)-inflow
 Model                              2          1 -5.43179311E-07       *                     1_GWF-(3,2635)
 Package                            2             1.34059443E-03       *             1_GWF-SFR-(217)-inflow
 ----------------------------------------------------------------------------------------------------------


 2 CALLS TO NUMERICAL SOLUTION IN TIME STEP 12 STRESS PERIOD 2
 2 TOTAL ITERATIONS

 OUTER ITERATION SUMMARY
 ----------------------------------------------------------------------------------------------------------
                                OUTER      INNER                    STEP   MAXIMUM CHANGE MODEL-(CELLID) OR
 OUTER ITERATION STEP       ITERATION  ITERATION  MAXIMUM CHANGE SUCCESS             MODEL-PACKAGE-(NUMBER)
 ----------------------------------------------------------------------------------------------------------
 Model                              1          1 -8.50297681E-08       *                     1_GWF-(3,3017)
 Package                            1                 -140995.97                     1_GWF-SFR-(217)-inflow
 Model                              2          1 -5.98190979E-07       *                     1_GWF-(3,2300)
 Package                            2             3.86523356E-03       *             1_GWF-SFR-(217)-inflow
 ----------------------------------------------------------------------------------------------------------


 2 CALLS TO NUMERICAL SOLUTION IN TIME STEP 13 STRESS PERIOD 2
 2 TOTAL ITERATIONS

 OUTER ITERATION SUMMARY
 ----------------------------------------------------------------------------------------------------------
                                OUTER      INNER                    STEP   MAXIMUM CHANGE MODEL-(CELLID) OR
 OUTER ITERATION STEP       ITERATION  ITERATION  MAXIMUM CHANGE SUCCESS             MODEL-PACKAGE-(NUMBER)
 ----------------------------------------------------------------------------------------------------------
 Model                              1          1 -1.05231834E-07       *                      1_GWF-(2,830)
 Package                            1                 -140995.94                     1_GWF-SFR-(217)-inflow
 Model                              2          1 -2.63342201E-07       *                     1_GWF-(3,2534)
 Package                            2             6.00783013E-03       *             1_GWF-SFR-(217)-inflow
 ----------------------------------------------------------------------------------------------------------


 2 CALLS TO NUMERICAL SOLUTION IN TIME STEP 14 STRESS PERIOD 2
 2 TOTAL ITERATIONS

 OUTER ITERATION SUMMARY
 ----------------------------------------------------------------------------------------------------------
                                OUTER      INNER                    STEP   MAXIMUM CHANGE MODEL-(CELLID) OR
 OUTER ITERATION STEP       ITERATION  ITERATION  MAXIMUM CHANGE SUCCESS             MODEL-PACKAGE-(NUMBER)
 ----------------------------------------------------------------------------------------------------------
 Model                              1          1 -1.33726218E-07       *                     1_GWF-(3,1926)
 Package                            1                 -140995.93                     1_GWF-SFR-(217)-inflow
 Model                              2          1 -7.13366717E-08       *                     1_GWF-(3,1997)
 Package                            2             2.96113021E-03       *             1_GWF-SFR-(206)-inflow
 ----------------------------------------------------------------------------------------------------------


 2 CALLS TO NUMERICAL SOLUTION IN TIME STEP 15 STRESS PERIOD 2
 2 TOTAL ITERATIONS

 OUTER ITERATION SUMMARY
 ----------------------------------------------------------------------------------------------------------
                                OUTER      INNER                    STEP   MAXIMUM CHANGE MODEL-(CELLID) OR
 OUTER ITERATION STEP       ITERATION  ITERATION  MAXIMUM CHANGE SUCCESS             MODEL-PACKAGE-(NUMBER)
 ----------------------------------------------------------------------------------------------------------
 Model                              1          1 -1.00914349E-07       *                     1_GWF-(3,2551)
 Package                            1                 -140995.92                     1_GWF-SFR-(217)-inflow
 Model                              2          1 -4.37323990E-08       *                     1_GWF-(3,2004)
 Package                            2             3.66857965E-03       *             1_GWF-SFR-(206)-inflow
 ----------------------------------------------------------------------------------------------------------


 2 CALLS TO NUMERICAL SOLUTION IN TIME STEP 16 STRESS PERIOD 2
 2 TOTAL ITERATIONS

 OUTER ITERATION SUMMARY
 ----------------------------------------------------------------------------------------------------------
                                OUTER      INNER                    STEP   MAXIMUM CHANGE MODEL-(CELLID) OR
 OUTER ITERATION STEP       ITERATION  ITERATION  MAXIMUM CHANGE SUCCESS             MODEL-PACKAGE-(NUMBER)
 ----------------------------------------------------------------------------------------------------------
 Model                              1          1 -2.32188427E-07       *                     1_GWF-(3,2627)
 Package                            1                 -140995.91                     1_GWF-SFR-(217)-inflow
 Model                              2          1 -6.55279848E-08       *                      1_GWF-(1,409)
 Package                            2             1.05684653E-02                     1_GWF-SFR-(206)-inflow
 Model                              3          1 -6.16296546E-07       *                     1_GWF-(3,2563)
 Package                            3             5.27768789E-03       *             1_GWF-SFR-(217)-inflow
 ----------------------------------------------------------------------------------------------------------


 3 CALLS TO NUMERICAL SOLUTION IN TIME STEP 17 STRESS PERIOD 2
 3 TOTAL ITERATIONS

 OUTER ITERATION SUMMARY
 ----------------------------------------------------------------------------------------------------------
                                OUTER      INNER                    STEP   MAXIMUM CHANGE MODEL-(CELLID) OR
 OUTER ITERATION STEP       ITERATION  ITERATION  MAXIMUM CHANGE SUCCESS             MODEL-PACKAGE-(NUMBER)
 ----------------------------------------------------------------------------------------------------------
 Model                              1          1 -9.96389531E-08       *                      1_GWF-(1,409)
 Package                            1                 -140995.86                     1_GWF-SFR-(217)-inflow
 Model                              2          1 -2.61909435E-07       *                     1_GWF-(3,2297)
 Package                            2             4.79983660E-03       *             1_GWF-SFR-(206)-inflow
 ----------------------------------------------------------------------------------------------------------


 2 CALLS TO NUMERICAL SOLUTION IN TIME STEP 18 STRESS PERIOD 2
 2 TOTAL ITERATIONS

 OUTER ITERATION SUMMARY
 ----------------------------------------------------------------------------------------------------------
                                OUTER      INNER                    STEP   MAXIMUM CHANGE MODEL-(CELLID) OR
 OUTER ITERATION STEP       ITERATION  ITERATION  MAXIMUM CHANGE SUCCESS             MODEL-PACKAGE-(NUMBER)
 ----------------------------------------------------------------------------------------------------------
 Model                              1          1 -9.77291279E-08       *                      1_GWF-(2,747)
 Package                            1                 -140995.85                     1_GWF-SFR-(217)-inflow
 Model                              2          1 -1.99583155E-07       *                     1_GWF-(2,2562)
 Package                            2             1.33144865E-03       *             1_GWF-SFR-(217)-inflow
 ----------------------------------------------------------------------------------------------------------


 2 CALLS TO NUMERICAL SOLUTION IN TIME STEP 19 STRESS PERIOD 2
 2 TOTAL ITERATIONS

 OUTER ITERATION SUMMARY
 ----------------------------------------------------------------------------------------------------------
                                OUTER      INNER                    STEP   MAXIMUM CHANGE MODEL-(CELLID) OR
 OUTER ITERATION STEP       ITERATION  ITERATION  MAXIMUM CHANGE SUCCESS             MODEL-PACKAGE-(NUMBER)
 ----------------------------------------------------------------------------------------------------------
 Model                              1          1 -8.38080041E-08       *                     1_GWF-(3,1572)
 Package                            1                 -140995.84                     1_GWF-SFR-(217)-inflow
 Model                              2          1 -2.04449094E-07       *                     1_GWF-(3,2386)
 Package                            2             1.00096466E-03       *             1_GWF-SFR-(257)-inflow
 ----------------------------------------------------------------------------------------------------------


 2 CALLS TO NUMERICAL SOLUTION IN TIME STEP 20 STRESS PERIOD 2
 2 TOTAL ITERATIONS

 OUTER ITERATION SUMMARY
 ----------------------------------------------------------------------------------------------------------
                                OUTER      INNER                    STEP   MAXIMUM CHANGE MODEL-(CELLID) OR
 OUTER ITERATION STEP       ITERATION  ITERATION  MAXIMUM CHANGE SUCCESS             MODEL-PACKAGE-(NUMBER)
 ----------------------------------------------------------------------------------------------------------
 Model                              1          1 -4.91963874E-08       *                     1_GWF-(3,1759)
 Package                            1                 -140995.83                     1_GWF-SFR-(217)-inflow
 Model                              2          1 -2.32586075E-07       *                     1_GWF-(3,2537)
 Package                            2             1.34962126E-03       *             1_GWF-SFR-(217)-inflow
 ----------------------------------------------------------------------------------------------------------


 2 CALLS TO NUMERICAL SOLUTION IN TIME STEP 21 STRESS PERIOD 2
 2 TOTAL ITERATIONS

 OUTER ITERATION SUMMARY
 ----------------------------------------------------------------------------------------------------------
                                OUTER      INNER                    STEP   MAXIMUM CHANGE MODEL-(CELLID) OR
 OUTER ITERATION STEP       ITERATION  ITERATION  MAXIMUM CHANGE SUCCESS             MODEL-PACKAGE-(NUMBER)
 ----------------------------------------------------------------------------------------------------------
 Model                              1          1 -6.22843004E-08       *                     1_GWF-(3,2302)
 Package                            1                 -140995.82                     1_GWF-SFR-(217)-inflow
 Model                              2          1 -1.47373242E-07       *                     1_GWF-(3,2297)
 Package                            2             1.58786913E-03       *             1_GWF-SFR-(217)-inflow
 ----------------------------------------------------------------------------------------------------------


 2 CALLS TO NUMERICAL SOLUTION IN TIME STEP 22 STRESS PERIOD 2
 2 TOTAL ITERATIONS

 OUTER ITERATION SUMMARY
 ----------------------------------------------------------------------------------------------------------
                                OUTER      INNER                    STEP   MAXIMUM CHANGE MODEL-(CELLID) OR
 OUTER ITERATION STEP       ITERATION  ITERATION  MAXIMUM CHANGE SUCCESS             MODEL-PACKAGE-(NUMBER)
 ----------------------------------------------------------------------------------------------------------
 Model                              1          1 -4.52685072E-08       *                     1_GWF-(3,1674)
 Package                            1                 -140995.81                     1_GWF-SFR-(217)-inflow
 Model                              2          1 -1.11904086E-07       *                     1_GWF-(3,2537)
 Package                            2             1.51790139E-03       *             1_GWF-SFR-(217)-inflow
 ----------------------------------------------------------------------------------------------------------


 2 CALLS TO NUMERICAL SOLUTION IN TIME STEP 23 STRESS PERIOD 2
 2 TOTAL ITERATIONS

 OUTER ITERATION SUMMARY
 ----------------------------------------------------------------------------------------------------------
                                OUTER      INNER                    STEP   MAXIMUM CHANGE MODEL-(CELLID) OR
 OUTER ITERATION STEP       ITERATION  ITERATION  MAXIMUM CHANGE SUCCESS             MODEL-PACKAGE-(NUMBER)
 ----------------------------------------------------------------------------------------------------------
 Model                              1          1 -3.39470034E-08       *                     1_GWF-(3,2140)
 Package                            1                 -140995.80                     1_GWF-SFR-(217)-inflow
 Model                              2          1 -1.15107923E-07       *                     1_GWF-(3,2386)
 Package                            2             1.25136068E-03       *             1_GWF-SFR-(217)-inflow
 ----------------------------------------------------------------------------------------------------------


 2 CALLS TO NUMERICAL SOLUTION IN TIME STEP 24 STRESS PERIOD 2
 2 TOTAL ITERATIONS

 OUTER ITERATION SUMMARY
 ----------------------------------------------------------------------------------------------------------
                                OUTER      INNER                    STEP   MAXIMUM CHANGE MODEL-(CELLID) OR
 OUTER ITERATION STEP       ITERATION  ITERATION  MAXIMUM CHANGE SUCCESS             MODEL-PACKAGE-(NUMBER)
 ----------------------------------------------------------------------------------------------------------
 Model                              1          1 -2.21137952E-08       *                     1_GWF-(3,2683)
 Package                            1                 -140995.80                     1_GWF-SFR-(217)-inflow
 Model                              2          1 -1.96288994E-07       *                     1_GWF-(3,2537)
 Package                            2             1.36901113E-03       *             1_GWF-SFR-(217)-inflow
 ----------------------------------------------------------------------------------------------------------


 2 CALLS TO NUMERICAL SOLUTION IN TIME STEP 25 STRESS PERIOD 2
 2 TOTAL ITERATIONS

 OUTER ITERATION SUMMARY
 ----------------------------------------------------------------------------------------------------------
                                OUTER      INNER                    STEP   MAXIMUM CHANGE MODEL-(CELLID) OR
 OUTER ITERATION STEP       ITERATION  ITERATION  MAXIMUM CHANGE SUCCESS             MODEL-PACKAGE-(NUMBER)
 ----------------------------------------------------------------------------------------------------------
 Model                              1          1 -3.55132670E-08       *                     1_GWF-(3,2071)
 Package                            1                 -140995.79                     1_GWF-SFR-(217)-inflow
 Model                              2          1 -1.79005468E-07       *                     1_GWF-(3,2300)
 Package                            2             1.47520902E-03       *             1_GWF-SFR-(217)-inflow
 ----------------------------------------------------------------------------------------------------------


 2 CALLS TO NUMERICAL SOLUTION IN TIME STEP 26 STRESS PERIOD 2
 2 TOTAL ITERATIONS

 OUTER ITERATION SUMMARY
 ----------------------------------------------------------------------------------------------------------
                                OUTER      INNER                    STEP   MAXIMUM CHANGE MODEL-(CELLID) OR
 OUTER ITERATION STEP       ITERATION  ITERATION  MAXIMUM CHANGE SUCCESS             MODEL-PACKAGE-(NUMBER)
 ----------------------------------------------------------------------------------------------------------
 Model                              1          1 -6.61017907E-08       *                     1_GWF-(3,1561)
 Package                            1                 -140995.78                     1_GWF-SFR-(217)-inflow
 Model                              2          1 -8.23921482E-08       *                     1_GWF-(3,2537)
 Package                            2             1.77061561E-03       *             1_GWF-SFR-(217)-inflow
 ----------------------------------------------------------------------------------------------------------


 2 CALLS TO NUMERICAL SOLUTION IN TIME STEP 27 STRESS PERIOD 2
 2 TOTAL ITERATIONS

 OUTER ITERATION SUMMARY
 ----------------------------------------------------------------------------------------------------------
                                OUTER      INNER                    STEP   MAXIMUM CHANGE MODEL-(CELLID) OR
 OUTER ITERATION STEP       ITERATION  ITERATION  MAXIMUM CHANGE SUCCESS             MODEL-PACKAGE-(NUMBER)
 ----------------------------------------------------------------------------------------------------------
 Model                              1          1 -3.17935474E-08       *                     1_GWF-(3,2071)
 Package                            1                 -140995.78                     1_GWF-SFR-(217)-inflow
 Model                              2          1 -3.82279381E-08       *                     1_GWF-(3,1929)
 Package                            2             1.40974582E-03       *             1_GWF-SFR-(206)-inflow
 ----------------------------------------------------------------------------------------------------------


 2 CALLS TO NUMERICAL SOLUTION IN TIME STEP 28 STRESS PERIOD 2
 2 TOTAL ITERATIONS

 OUTER ITERATION SUMMARY
 ----------------------------------------------------------------------------------------------------------
                                OUTER      INNER                    STEP   MAXIMUM CHANGE MODEL-(CELLID) OR
 OUTER ITERATION STEP       ITERATION  ITERATION  MAXIMUM CHANGE SUCCESS             MODEL-PACKAGE-(NUMBER)
 ----------------------------------------------------------------------------------------------------------
 Model                              1          1 -2.23985523E-08       *                     1_GWF-(3,2071)
 Package                            1                 -140995.77                     1_GWF-SFR-(217)-inflow
 Model                              2          1 -3.64975676E-08       *                      1_GWF-(3,584)
 Package                            2             9.67054325E-04       *             1_GWF-SFR-(206)-inflow
 ----------------------------------------------------------------------------------------------------------


 2 CALLS TO NUMERICAL SOLUTION IN TIME STEP 29 STRESS PERIOD 2
 2 TOTAL ITERATIONS

 OUTER ITERATION SUMMARY
 ----------------------------------------------------------------------------------------------------------
                                OUTER      INNER                    STEP   MAXIMUM CHANGE MODEL-(CELLID) OR
 OUTER ITERATION STEP       ITERATION  ITERATION  MAXIMUM CHANGE SUCCESS             MODEL-PACKAGE-(NUMBER)
 ----------------------------------------------------------------------------------------------------------
 Model                              1          1 -2.30701289E-08       *                     1_GWF-(3,2071)
 Package                            1                 -140995.77                     1_GWF-SFR-(217)-inflow
 Model                              2          1 -3.52304426E-08       *                      1_GWF-(3,584)
 Package                            2             9.05094582E-04       *             1_GWF-SFR-(206)-inflow
 ----------------------------------------------------------------------------------------------------------


 2 CALLS TO NUMERICAL SOLUTION IN TIME STEP 30 STRESS PERIOD 2
 2 TOTAL ITERATIONS

 OUTER ITERATION SUMMARY
 ----------------------------------------------------------------------------------------------------------
                                OUTER      INNER                    STEP   MAXIMUM CHANGE MODEL-(CELLID) OR
 OUTER ITERATION STEP       ITERATION  ITERATION  MAXIMUM CHANGE SUCCESS             MODEL-PACKAGE-(NUMBER)
 ----------------------------------------------------------------------------------------------------------
 Model                              1          1 -2.28215242E-08       *                     1_GWF-(3,2071)
 Package                            1                 -140995.77                     1_GWF-SFR-(217)-inflow
 Model                              2          1 -3.29304441E-08       *                      1_GWF-(3,584)
 Package                            2             8.51016749E-04       *             1_GWF-SFR-(206)-inflow
 ----------------------------------------------------------------------------------------------------------


 2 CALLS TO NUMERICAL SOLUTION IN TIME STEP 31 STRESS PERIOD 2
 2 TOTAL ITERATIONS

 OUTER ITERATION SUMMARY
 ----------------------------------------------------------------------------------------------------------
                                OUTER      INNER                    STEP   MAXIMUM CHANGE MODEL-(CELLID) OR
 OUTER ITERATION STEP       ITERATION  ITERATION  MAXIMUM CHANGE SUCCESS             MODEL-PACKAGE-(NUMBER)
 ----------------------------------------------------------------------------------------------------------
 Model                              1          1 -2.30113812E-08       *                     1_GWF-(3,2071)
 Package                            1                 -140995.76                     1_GWF-SFR-(217)-inflow
 Model                              2          1 -2.96388123E-08       *                      1_GWF-(3,584)
 Package                            2             8.41385919E-04       *             1_GWF-SFR-(206)-inflow
 ----------------------------------------------------------------------------------------------------------


 2 CALLS TO NUMERICAL SOLUTION IN TIME STEP 32 STRESS PERIOD 2
 2 TOTAL ITERATIONS

 OUTER ITERATION SUMMARY
 ----------------------------------------------------------------------------------------------------------
                                OUTER      INNER                    STEP   MAXIMUM CHANGE MODEL-(CELLID) OR
 OUTER ITERATION STEP       ITERATION  ITERATION  MAXIMUM CHANGE SUCCESS             MODEL-PACKAGE-(NUMBER)
 ----------------------------------------------------------------------------------------------------------
 Model                              1          1 -2.38586324E-08       *                     1_GWF-(3,2071)
 Package                            1                 -140995.76                     1_GWF-SFR-(217)-inflow
 Model                              2          1 -2.52861412E-08       *                      1_GWF-(3,584)
 Package                            2             8.68274908E-04       *             1_GWF-SFR-(206)-inflow
 ----------------------------------------------------------------------------------------------------------


 2 CALLS TO NUMERICAL SOLUTION IN TIME STEP 33 STRESS PERIOD 2
 2 TOTAL ITERATIONS

 OUTER ITERATION SUMMARY
 ----------------------------------------------------------------------------------------------------------
                                OUTER      INNER                    STEP   MAXIMUM CHANGE MODEL-(CELLID) OR
 OUTER ITERATION STEP       ITERATION  ITERATION  MAXIMUM CHANGE SUCCESS             MODEL-PACKAGE-(NUMBER)
 ----------------------------------------------------------------------------------------------------------
 Model                              1          1 -2.64488733E-08       *                     1_GWF-(3,2071)
 Package                            1                 -140995.76                     1_GWF-SFR-(217)-inflow
 Model                              2          1 -2.01090131E-08       *                      1_GWF-(3,584)
 Package                            2             9.84456632E-04       *             1_GWF-SFR-(206)-inflow
 ----------------------------------------------------------------------------------------------------------


 2 CALLS TO NUMERICAL SOLUTION IN TIME STEP 34 STRESS PERIOD 2
 2 TOTAL ITERATIONS

 OUTER ITERATION SUMMARY
 ----------------------------------------------------------------------------------------------------------
                                OUTER      INNER                    STEP   MAXIMUM CHANGE MODEL-(CELLID) OR
 OUTER ITERATION STEP       ITERATION  ITERATION  MAXIMUM CHANGE SUCCESS             MODEL-PACKAGE-(NUMBER)
 ----------------------------------------------------------------------------------------------------------
 Model                              1          1 -3.52069378E-08       *                     1_GWF-(3,2071)
 Package                            1                 -140995.76                     1_GWF-SFR-(217)-inflow
 Model                              2          1 -1.48282027E-08       *                      1_GWF-(3,584)
 Package                            2             1.44646462E-03       *             1_GWF-SFR-(206)-inflow
 ----------------------------------------------------------------------------------------------------------


 2 CALLS TO NUMERICAL SOLUTION IN TIME STEP 35 STRESS PERIOD 2
 2 TOTAL ITERATIONS

 OUTER ITERATION SUMMARY
 ----------------------------------------------------------------------------------------------------------
                                OUTER      INNER                    STEP   MAXIMUM CHANGE MODEL-(CELLID) OR
 OUTER ITERATION STEP       ITERATION  ITERATION  MAXIMUM CHANGE SUCCESS             MODEL-PACKAGE-(NUMBER)
 ----------------------------------------------------------------------------------------------------------
 Model                              1          1 -9.34734601E-08       *                     1_GWF-(3,2071)
 Package                            1                 -140995.75                     1_GWF-SFR-(217)-inflow
 Model                              2          1 -2.61802029E-08       *                      1_GWF-(1,409)
 Package                            2             4.81544918E-03       *             1_GWF-SFR-(206)-inflow
 ----------------------------------------------------------------------------------------------------------


 2 CALLS TO NUMERICAL SOLUTION IN TIME STEP 36 STRESS PERIOD 2
 2 TOTAL ITERATIONS

 OUTER ITERATION SUMMARY
 ----------------------------------------------------------------------------------------------------------
                                OUTER      INNER                    STEP   MAXIMUM CHANGE MODEL-(CELLID) OR
 OUTER ITERATION STEP       ITERATION  ITERATION  MAXIMUM CHANGE SUCCESS             MODEL-PACKAGE-(NUMBER)
 ----------------------------------------------------------------------------------------------------------
 Model                              1          1 -1.70160945E-07       *                     1_GWF-(3,2552)
 Package                            1                 -140995.75                     1_GWF-SFR-(217)-inflow
 Model                              2          1 -2.28600356E-08       *                      1_GWF-(1,409)
 Package                            2             1.21304746E-02                     1_GWF-SFR-(206)-inflow
 Model                              3          1 -7.14686621E-08       *                     1_GWF-(2,2563)
 Package                            3             5.67430663E-04       *             1_GWF-SFR-(217)-inflow
 ----------------------------------------------------------------------------------------------------------


 3 CALLS TO NUMERICAL SOLUTION IN TIME STEP 37 STRESS PERIOD 2
 3 TOTAL ITERATIONS

 OUTER ITERATION SUMMARY
 ----------------------------------------------------------------------------------------------------------
                                OUTER      INNER                    STEP   MAXIMUM CHANGE MODEL-(CELLID) OR
 OUTER ITERATION STEP       ITERATION  ITERATION  MAXIMUM CHANGE SUCCESS             MODEL-PACKAGE-(NUMBER)
 ----------------------------------------------------------------------------------------------------------
 Model                              1          1 -2.18340688E-08       *                      1_GWF-(3,425)
 Package                            1                 -140995.73                     1_GWF-SFR-(217)-inflow
 Model                              2          1 -4.89096408E-08       *                     1_GWF-(3,2300)
 Package                            2             1.88272211E-03       *             1_GWF-SFR-(206)-inflow
 ----------------------------------------------------------------------------------------------------------


 2 CALLS TO NUMERICAL SOLUTION IN TIME STEP 38 STRESS PERIOD 2
 2 TOTAL ITERATIONS

 OUTER ITERATION SUMMARY
 ----------------------------------------------------------------------------------------------------------
                                OUTER      INNER                    STEP   MAXIMUM CHANGE MODEL-(CELLID) OR
 OUTER ITERATION STEP       ITERATION  ITERATION  MAXIMUM CHANGE SUCCESS             MODEL-PACKAGE-(NUMBER)
 ----------------------------------------------------------------------------------------------------------
 Model                              1          1 -1.09673977E-08       *                     1_GWF-(3,1471)
 Package                            1                 -140995.73                     1_GWF-SFR-(217)-inflow
 Model                              2          1 -3.30385035E-08       *                     1_GWF-(2,2562)
 Package                            2             9.74644480E-04       *             1_GWF-SFR-(206)-inflow
 ----------------------------------------------------------------------------------------------------------


 2 CALLS TO NUMERICAL SOLUTION IN TIME STEP 39 STRESS PERIOD 2
 2 TOTAL ITERATIONS

 OUTER ITERATION SUMMARY
 ----------------------------------------------------------------------------------------------------------
                                OUTER      INNER                    STEP   MAXIMUM CHANGE MODEL-(CELLID) OR
 OUTER ITERATION STEP       ITERATION  ITERATION  MAXIMUM CHANGE SUCCESS             MODEL-PACKAGE-(NUMBER)
 ----------------------------------------------------------------------------------------------------------
 Model                              1          1 -1.26615305E-08       *                     1_GWF-(3,2551)
 Package                            1                 -140995.73                     1_GWF-SFR-(217)-inflow
 Model                              2          1 -3.12497548E-08       *                     1_GWF-(3,2300)
 Package                            2             1.01610700E-03       *             1_GWF-SFR-(206)-inflow
 ----------------------------------------------------------------------------------------------------------


 2 CALLS TO NUMERICAL SOLUTION IN TIME STEP 40 STRESS PERIOD 2
 2 TOTAL ITERATIONS

 OUTER ITERATION SUMMARY
 ----------------------------------------------------------------------------------------------------------
                                OUTER      INNER                    STEP   MAXIMUM CHANGE MODEL-(CELLID) OR
 OUTER ITERATION STEP       ITERATION  ITERATION  MAXIMUM CHANGE SUCCESS             MODEL-PACKAGE-(NUMBER)
 ----------------------------------------------------------------------------------------------------------
 Model                              1          1 -8.55393978E-09       *                     1_GWF-(3,2551)
 Package                            1                 -140995.73                     1_GWF-SFR-(217)-inflow
 Model                              2          1 -2.70410965E-08       *                     1_GWF-(2,2562)
 Package                            2             6.48697470E-04       *             1_GWF-SFR-(206)-inflow
 ----------------------------------------------------------------------------------------------------------


 2 CALLS TO NUMERICAL SOLUTION IN TIME STEP 41 STRESS PERIOD 2
 2 TOTAL ITERATIONS

 OUTER ITERATION SUMMARY
 ----------------------------------------------------------------------------------------------------------
                                OUTER      INNER                    STEP   MAXIMUM CHANGE MODEL-(CELLID) OR
 OUTER ITERATION STEP       ITERATION  ITERATION  MAXIMUM CHANGE SUCCESS             MODEL-PACKAGE-(NUMBER)
 ----------------------------------------------------------------------------------------------------------
 Model                              1          1 -9.73093961E-09       *                     1_GWF-(3,2551)
 Package                            1                 -140995.72                     1_GWF-SFR-(217)-inflow
 Model                              2          1 -2.98524014E-08       *                     1_GWF-(3,2300)
 Package                            2             5.93281969E-04       *             1_GWF-SFR-(206)-inflow
 ----------------------------------------------------------------------------------------------------------


 2 CALLS TO NUMERICAL SOLUTION IN TIME STEP 42 STRESS PERIOD 2
 2 TOTAL ITERATIONS

 OUTER ITERATION SUMMARY
 ----------------------------------------------------------------------------------------------------------
                                OUTER      INNER                    STEP   MAXIMUM CHANGE MODEL-(CELLID) OR
 OUTER ITERATION STEP       ITERATION  ITERATION  MAXIMUM CHANGE SUCCESS             MODEL-PACKAGE-(NUMBER)
 ----------------------------------------------------------------------------------------------------------
 Model                              1          1 -7.85959742E-09       *                     1_GWF-(3,2551)
 Package                            1                 -140995.72                     1_GWF-SFR-(217)-inflow
 Model                              2          1 -2.95619316E-08       *                     1_GWF-(2,2562)
 Package                            2             4.28936956E-04       *             1_GWF-SFR-(206)-inflow
 ----------------------------------------------------------------------------------------------------------


 2 CALLS TO NUMERICAL SOLUTION IN TIME STEP 43 STRESS PERIOD 2
 2 TOTAL ITERATIONS

 OUTER ITERATION SUMMARY
 ----------------------------------------------------------------------------------------------------------
                                OUTER      INNER                    STEP   MAXIMUM CHANGE MODEL-(CELLID) OR
 OUTER ITERATION STEP       ITERATION  ITERATION  MAXIMUM CHANGE SUCCESS             MODEL-PACKAGE-(NUMBER)
 ----------------------------------------------------------------------------------------------------------
 Model                              1          1 -8.15779799E-09       *                     1_GWF-(3,2551)
 Package                            1                 -140995.72                     1_GWF-SFR-(217)-inflow
 Model                              2          1 -3.50142386E-08       *                     1_GWF-(3,2300)
 Package                            2             3.79876200E-04       *             1_GWF-SFR-(206)-inflow
 ----------------------------------------------------------------------------------------------------------


 2 CALLS TO NUMERICAL SOLUTION IN TIME STEP 44 STRESS PERIOD 2
 2 TOTAL ITERATIONS

 OUTER ITERATION SUMMARY
 ----------------------------------------------------------------------------------------------------------
                                OUTER      INNER                    STEP   MAXIMUM CHANGE MODEL-(CELLID) OR
 OUTER ITERATION STEP       ITERATION  ITERATION  MAXIMUM CHANGE SUCCESS             MODEL-PACKAGE-(NUMBER)
 ----------------------------------------------------------------------------------------------------------
 Model                              1          1 -6.51536425E-09       *                     1_GWF-(3,2551)
 Package                            1                 -140995.72                     1_GWF-SFR-(217)-inflow
 Model                              2          1 -3.43790418E-08       *                     1_GWF-(2,2562)
 Package                            2             2.58548047E-04       *             1_GWF-SFR-(206)-inflow
 ----------------------------------------------------------------------------------------------------------


 2 CALLS TO NUMERICAL SOLUTION IN TIME STEP 45 STRESS PERIOD 2
 2 TOTAL ITERATIONS

 OUTER ITERATION SUMMARY
 ----------------------------------------------------------------------------------------------------------
                                OUTER      INNER                    STEP   MAXIMUM CHANGE MODEL-(CELLID) OR
 OUTER ITERATION STEP       ITERATION  ITERATION  MAXIMUM CHANGE SUCCESS             MODEL-PACKAGE-(NUMBER)
 ----------------------------------------------------------------------------------------------------------
 Model                              1          1 -8.16348233E-09       *                     1_GWF-(3,2071)
 Package                            1                 -140995.71                     1_GWF-SFR-(217)-inflow
 Model                              2          1 -3.86659167E-08       *                     1_GWF-(3,2300)
 Package                            2             2.98065965E-04       *             1_GWF-SFR-(217)-inflow
 ----------------------------------------------------------------------------------------------------------


 2 CALLS TO NUMERICAL SOLUTION IN TIME STEP 46 STRESS PERIOD 2
 2 TOTAL ITERATIONS

 OUTER ITERATION SUMMARY
 ----------------------------------------------------------------------------------------------------------
                                OUTER      INNER                    STEP   MAXIMUM CHANGE MODEL-(CELLID) OR
 OUTER ITERATION STEP       ITERATION  ITERATION  MAXIMUM CHANGE SUCCESS             MODEL-PACKAGE-(NUMBER)
 ----------------------------------------------------------------------------------------------------------
 Model                              1          1 -6.18913987E-09       *                     1_GWF-(3,2614)
 Package                            1                 -140995.71                     1_GWF-SFR-(217)-inflow
 Model                              2          1 -2.76813807E-08       *                     1_GWF-(3,2456)
 Package                            2             2.60008437E-04       *             1_GWF-SFR-(217)-inflow
 ----------------------------------------------------------------------------------------------------------


 2 CALLS TO NUMERICAL SOLUTION IN TIME STEP 47 STRESS PERIOD 2
 2 TOTAL ITERATIONS

 OUTER ITERATION SUMMARY
 ----------------------------------------------------------------------------------------------------------
                                OUTER      INNER                    STEP   MAXIMUM CHANGE MODEL-(CELLID) OR
 OUTER ITERATION STEP       ITERATION  ITERATION  MAXIMUM CHANGE SUCCESS             MODEL-PACKAGE-(NUMBER)
 ----------------------------------------------------------------------------------------------------------
 Model                              1          1 -1.01479998E-08       *                     1_GWF-(3,2071)
 Package                            1                 -140995.71                     1_GWF-SFR-(217)-inflow
 Model                              2          1 -1.74822219E-08       *                     1_GWF-(3,2300)
 Package                            2             3.73284444E-04       *             1_GWF-SFR-(217)-inflow
 ----------------------------------------------------------------------------------------------------------


 2 CALLS TO NUMERICAL SOLUTION IN TIME STEP 48 STRESS PERIOD 2
 2 TOTAL ITERATIONS

 MEMORY MANAGER TOTAL STORAGE BY DATA TYPE, IN MEGABYTES
 -------------------------------
                    ALLOCATED   
 DATA TYPE           MEMORY     
 -------------------------------
 Character        1.98730000E-02
 Logical          4.40000000E-05
 Integer          2.0229440     
 Real             4.8502000     
 -------------------------------
 Total            6.8930610     
 -------------------------------


 
 Run end date and time (yyyy/mm/dd hh:mm:ss): 2021/11/03  9:22:59
 Elapsed run time:  3.889 Seconds
 Normal termination of simulation.
